/*---------------------------------------------------------------------------*\
  =========                 |
  \\      /  F ield         | OpenFOAM: The Open Source CFD Toolbox
   \\    /   O peration     | Website:  https://openfoam.org
    \\  /    A nd           | Version:  10
     \\/     M anipulation  |
\*---------------------------------------------------------------------------*/
Build  : 10-c4cf895ad8fa
Exec   : topoSet
Date   : Jun 28 2023
Time   : 14:06:42
Host   : "aris"
PID    : 3506795
I/O    : uncollated
Case   : /home/eadaymo/OpenFOAM/eadaymo-10/run/OFW18code/CHTMRF-newTutorials-v2/Wedge-HeatExchange-5ms
nProcs : 1
sigFpe : Enabling floating point exception trapping (FOAM_SIGFPE).
fileModificationChecking : Monitoring run-time modified files using timeStampMaster (fileModificationSkew 10)
allowSystemOperations : Allowing user-supplied system call operations

// * * * * * * * * * * * * * * * * * * * * * * * * * * * * * * * * * * * * * //
Create time

Create polyMesh for time = 0

--> FOAM Warning : 
    From function virtual void Foam::wedgePolyPatch::calcGeometry(Foam::PstreamBuffers&)
    in file meshes/polyMesh/polyPatches/constraint/wedge/wedgePolyPatch.C at line 70
    Wedge patch 'frontAndBack_pos' is not planar.
At local face at (0.00125 0.011756863 0.00051282716) the normal (0 -0.043577931 0.99905003) differs from the average normal (-2.8037832e-19 -0.043577951 0.99905003) by 4.0900781e-16
Either correct the patch or split it into planar parts
--> FOAM Warning : 
    From function virtual void Foam::wedgePolyPatch::calcGeometry(Foam::PstreamBuffers&)
    in file meshes/polyMesh/polyPatches/constraint/wedge/wedgePolyPatch.C at line 70
    Wedge patch 'frontAndBack_pos' is not planar.
At local face at (0.00125 0.012400861 0.00054091795) the normal (0 -0.043577968 0.99905003) differs from the average normal (-2.8037832e-19 -0.043577951 0.99905003) by 2.8935914e-16
Either correct the patch or split it into planar parts
--> FOAM Warning : 
    From function virtual void Foam::wedgePolyPatch::calcGeometry(Foam::PstreamBuffers&)
    in file meshes/polyMesh/polyPatches/constraint/wedge/wedgePolyPatch.C at line 70
    Wedge patch 'frontAndBack_pos' is not planar.
At local face at (0.00375 0.011756863 0.00051282716) the normal (0 -0.043577931 0.99905003) differs from the average normal (-2.8037832e-19 -0.043577951 0.99905003) by 4.0900781e-16
Either correct the patch or split it into planar parts
--> FOAM Warning : 
    From function virtual void Foam::wedgePolyPatch::calcGeometry(Foam::PstreamBuffers&)
    in file meshes/polyMesh/polyPatches/constraint/wedge/wedgePolyPatch.C at line 70
    Wedge patch 'frontAndBack_pos' is not planar.
At local face at (0.00375 0.012400861 0.00054091796) the normal (0 -0.043577968 0.99905003) differs from the average normal (-2.8037832e-19 -0.043577951 0.99905003) by 2.8935914e-16
Either correct the patch or split it into planar parts
--> FOAM Warning : 
    From function virtual void Foam::wedgePolyPatch::calcGeometry(Foam::PstreamBuffers&)
    in file meshes/polyMesh/polyPatches/constraint/wedge/wedgePolyPatch.C at line 70
    Wedge patch 'frontAndBack_pos' is not planar.
At local face at (0.00625 0.011756863 0.00051282716) the normal (0 -0.043577931 0.99905003) differs from the average normal (-2.8037832e-19 -0.043577951 0.99905003) by 4.0900781e-16
Either correct the patch or split it into planar parts
--> FOAM Warning : 
    From function virtual void Foam::wedgePolyPatch::calcGeometry(Foam::PstreamBuffers&)
    in file meshes/polyMesh/polyPatches/constraint/wedge/wedgePolyPatch.C at line 70
    Wedge patch 'frontAndBack_pos' is not planar.
At local face at (0.00625 0.012400861 0.00054091795) the normal (0 -0.043577968 0.99905003) differs from the average normal (-2.8037832e-19 -0.043577951 0.99905003) by 2.8935914e-16
Either correct the patch or split it into planar parts
--> FOAM Warning : 
    From function virtual void Foam::wedgePolyPatch::calcGeometry(Foam::PstreamBuffers&)
    in file meshes/polyMesh/polyPatches/constraint/wedge/wedgePolyPatch.C at line 70
    Wedge patch 'frontAndBack_pos' is not planar.
At local face at (0.00875 0.011756863 0.00051282716) the normal (0 -0.043577931 0.99905003) differs from the average normal (-2.8037832e-19 -0.043577951 0.99905003) by 4.0900781e-16
Either correct the patch or split it into planar parts
--> FOAM Warning : 
    From function virtual void Foam::wedgePolyPatch::calcGeometry(Foam::PstreamBuffers&)
    in file meshes/polyMesh/polyPatches/constraint/wedge/wedgePolyPatch.C at line 70
    Wedge patch 'frontAndBack_pos' is not planar.
At local face at (0.00875 0.012400861 0.00054091795) the normal (0 -0.043577968 0.99905003) differs from the average normal (-2.8037832e-19 -0.043577951 0.99905003) by 2.8935914e-16
Either correct the patch or split it into planar parts
--> FOAM Warning : 
    From function virtual void Foam::wedgePolyPatch::calcGeometry(Foam::PstreamBuffers&)
    in file meshes/polyMesh/polyPatches/constraint/wedge/wedgePolyPatch.C at line 70
    Wedge patch 'frontAndBack_pos' is not planar.
At local face at (0.01125 0.011756863 0.00051282716) the normal (0 -0.043577931 0.99905003) differs from the average normal (-2.8037832e-19 -0.043577951 0.99905003) by 4.0900781e-16
Either correct the patch or split it into planar parts
--> FOAM Warning : 
    From function virtual void Foam::wedgePolyPatch::calcGeometry(Foam::PstreamBuffers&)
    in file meshes/polyMesh/polyPatches/constraint/wedge/wedgePolyPatch.C at line 70
    Wedge patch 'frontAndBack_pos' is not planar.
At local face at (0.01125 0.012400861 0.00054091795) the normal (0 -0.043577968 0.99905003) differs from the average normal (-2.8037832e-19 -0.043577951 0.99905003) by 2.8935914e-16
Either correct the patch or split it into planar parts
--> FOAM Warning : 
    From function virtual void Foam::wedgePolyPatch::calcGeometry(Foam::PstreamBuffers&)
    in file meshes/polyMesh/polyPatches/constraint/wedge/wedgePolyPatch.C at line 70
    Wedge patch 'frontAndBack_pos' is not planar.
At local face at (0.01375 0.011756863 0.00051282716) the normal (0 -0.043577931 0.99905003) differs from the average normal (-2.8037832e-19 -0.043577951 0.99905003) by 4.0900781e-16
Either correct the patch or split it into planar parts
--> FOAM Warning : 
    From function virtual void Foam::wedgePolyPatch::calcGeometry(Foam::PstreamBuffers&)
    in file meshes/polyMesh/polyPatches/constraint/wedge/wedgePolyPatch.C at line 70
    Wedge patch 'frontAndBack_pos' is not planar.
At local face at (0.01375 0.012400861 0.00054091795) the normal (0 -0.043577968 0.99905003) differs from the average normal (-2.8037832e-19 -0.043577951 0.99905003) by 2.8935914e-16
Either correct the patch or split it into planar parts
--> FOAM Warning : 
    From function virtual void Foam::wedgePolyPatch::calcGeometry(Foam::PstreamBuffers&)
    in file meshes/polyMesh/polyPatches/constraint/wedge/wedgePolyPatch.C at line 70
    Wedge patch 'frontAndBack_pos' is not planar.
At local face at (0.01625 0.011756863 0.00051282716) the normal (0 -0.043577931 0.99905003) differs from the average normal (-2.8037832e-19 -0.043577951 0.99905003) by 4.0900781e-16
Either correct the patch or split it into planar parts
--> FOAM Warning : 
    From function virtual void Foam::wedgePolyPatch::calcGeometry(Foam::PstreamBuffers&)
    in file meshes/polyMesh/polyPatches/constraint/wedge/wedgePolyPatch.C at line 70
    Wedge patch 'frontAndBack_pos' is not planar.
At local face at (0.01625 0.012400861 0.00054091796) the normal (0 -0.043577968 0.99905003) differs from the average normal (-2.8037832e-19 -0.043577951 0.99905003) by 2.8935914e-16
Either correct the patch or split it into planar parts
--> FOAM Warning : 
    From function virtual void Foam::wedgePolyPatch::calcGeometry(Foam::PstreamBuffers&)
    in file meshes/polyMesh/polyPatches/constraint/wedge/wedgePolyPatch.C at line 70
    Wedge patch 'frontAndBack_pos' is not planar.
At local face at (0.01875 0.011756863 0.00051282716) the normal (0 -0.043577931 0.99905003) differs from the average normal (-2.8037832e-19 -0.043577951 0.99905003) by 4.0900781e-16
Either correct the patch or split it into planar parts
--> FOAM Warning : 
    From function virtual void Foam::wedgePolyPatch::calcGeometry(Foam::PstreamBuffers&)
    in file meshes/polyMesh/polyPatches/constraint/wedge/wedgePolyPatch.C at line 70
    Wedge patch 'frontAndBack_pos' is not planar.
At local face at (0.01875 0.012400861 0.00054091796) the normal (0 -0.043577968 0.99905003) differs from the average normal (-2.8037832e-19 -0.043577951 0.99905003) by 2.8935914e-16
Either correct the patch or split it into planar parts
--> FOAM Warning : 
    From function virtual void Foam::wedgePolyPatch::calcGeometry(Foam::PstreamBuffers&)
    in file meshes/polyMesh/polyPatches/constraint/wedge/wedgePolyPatch.C at line 70
    Wedge patch 'frontAndBack_pos' is not planar.
At local face at (0.02125 0.011756863 0.00051282716) the normal (0 -0.043577931 0.99905003) differs from the average normal (-2.8037832e-19 -0.043577951 0.99905003) by 4.0900781e-16
Either correct the patch or split it into planar parts
--> FOAM Warning : 
    From function virtual void Foam::wedgePolyPatch::calcGeometry(Foam::PstreamBuffers&)
    in file meshes/polyMesh/polyPatches/constraint/wedge/wedgePolyPatch.C at line 70
    Wedge patch 'frontAndBack_pos' is not planar.
At local face at (0.02125 0.012400861 0.00054091796) the normal (0 -0.043577968 0.99905003) differs from the average normal (-2.8037832e-19 -0.043577951 0.99905003) by 2.8935914e-16
Either correct the patch or split it into planar parts
--> FOAM Warning : 
    From function virtual void Foam::wedgePolyPatch::calcGeometry(Foam::PstreamBuffers&)
    in file meshes/polyMesh/polyPatches/constraint/wedge/wedgePolyPatch.C at line 70
    Wedge patch 'frontAndBack_pos' is not planar.
At local face at (0.02375 0.011756863 0.00051282716) the normal (0 -0.043577931 0.99905003) differs from the average normal (-2.8037832e-19 -0.043577951 0.99905003) by 4.0900781e-16
Either correct the patch or split it into planar parts
--> FOAM Warning : 
    From function virtual void Foam::wedgePolyPatch::calcGeometry(Foam::PstreamBuffers&)
    in file meshes/polyMesh/polyPatches/constraint/wedge/wedgePolyPatch.C at line 70
    Wedge patch 'frontAndBack_pos' is not planar.
At local face at (0.02375 0.012400861 0.00054091796) the normal (0 -0.043577968 0.99905003) differs from the average normal (-2.8037832e-19 -0.043577951 0.99905003) by 2.8935914e-16
Either correct the patch or split it into planar parts
--> FOAM Warning : 
    From function virtual void Foam::wedgePolyPatch::calcGeometry(Foam::PstreamBuffers&)
    in file meshes/polyMesh/polyPatches/constraint/wedge/wedgePolyPatch.C at line 70
    Wedge patch 'frontAndBack_pos' is not planar.
At local face at (0.02625 0.011756863 0.00051282716) the normal (0 -0.043577931 0.99905003) differs from the average normal (-2.8037832e-19 -0.043577951 0.99905003) by 4.0900781e-16
Either correct the patch or split it into planar parts
--> FOAM Warning : 
    From function virtual void Foam::wedgePolyPatch::calcGeometry(Foam::PstreamBuffers&)
    in file meshes/polyMesh/polyPatches/constraint/wedge/wedgePolyPatch.C at line 70
    Wedge patch 'frontAndBack_pos' is not planar.
At local face at (0.02625 0.012400861 0.00054091796) the normal (0 -0.043577968 0.99905003) differs from the average normal (-2.8037832e-19 -0.043577951 0.99905003) by 2.8935914e-16
Either correct the patch or split it into planar parts
--> FOAM Warning : 
    From function virtual void Foam::wedgePolyPatch::calcGeometry(Foam::PstreamBuffers&)
    in file meshes/polyMesh/polyPatches/constraint/wedge/wedgePolyPatch.C at line 70
    Wedge patch 'frontAndBack_pos' is not planar.
At local face at (0.02875 0.011756863 0.00051282716) the normal (0 -0.043577931 0.99905003) differs from the average normal (-2.8037832e-19 -0.043577951 0.99905003) by 4.0900781e-16
Either correct the patch or split it into planar parts
--> FOAM Warning : 
    From function virtual void Foam::wedgePolyPatch::calcGeometry(Foam::PstreamBuffers&)
    in file meshes/polyMesh/polyPatches/constraint/wedge/wedgePolyPatch.C at line 70
    Wedge patch 'frontAndBack_pos' is not planar.
At local face at (0.02875 0.012400861 0.00054091795) the normal (0 -0.043577968 0.99905003) differs from the average normal (-2.8037832e-19 -0.043577951 0.99905003) by 2.8935914e-16
Either correct the patch or split it into planar parts
--> FOAM Warning : 
    From function virtual void Foam::wedgePolyPatch::calcGeometry(Foam::PstreamBuffers&)
    in file meshes/polyMesh/polyPatches/constraint/wedge/wedgePolyPatch.C at line 70
    Wedge patch 'frontAndBack_pos' is not planar.
At local face at (0.03125 0.011756863 0.00051282716) the normal (0 -0.043577931 0.99905003) differs from the average normal (-2.8037832e-19 -0.043577951 0.99905003) by 4.0900781e-16
Either correct the patch or split it into planar parts
--> FOAM Warning : 
    From function virtual void Foam::wedgePolyPatch::calcGeometry(Foam::PstreamBuffers&)
    in file meshes/polyMesh/polyPatches/constraint/wedge/wedgePolyPatch.C at line 70
    Wedge patch 'frontAndBack_pos' is not planar.
At local face at (0.03125 0.012400861 0.00054091796) the normal (0 -0.043577968 0.99905003) differs from the average normal (-2.8037832e-19 -0.043577951 0.99905003) by 2.8935914e-16
Either correct the patch or split it into planar parts
--> FOAM Warning : 
    From function virtual void Foam::wedgePolyPatch::calcGeometry(Foam::PstreamBuffers&)
    in file meshes/polyMesh/polyPatches/constraint/wedge/wedgePolyPatch.C at line 70
    Wedge patch 'frontAndBack_pos' is not planar.
At local face at (0.03375 0.011756863 0.00051282716) the normal (0 -0.043577931 0.99905003) differs from the average normal (-2.8037832e-19 -0.043577951 0.99905003) by 4.0900781e-16
Either correct the patch or split it into planar parts
--> FOAM Warning : 
    From function virtual void Foam::wedgePolyPatch::calcGeometry(Foam::PstreamBuffers&)
    in file meshes/polyMesh/polyPatches/constraint/wedge/wedgePolyPatch.C at line 70
    Wedge patch 'frontAndBack_pos' is not planar.
At local face at (0.03375 0.012400861 0.00054091796) the normal (0 -0.043577968 0.99905003) differs from the average normal (-2.8037832e-19 -0.043577951 0.99905003) by 2.8935914e-16
Either correct the patch or split it into planar parts
--> FOAM Warning : 
    From function virtual void Foam::wedgePolyPatch::calcGeometry(Foam::PstreamBuffers&)
    in file meshes/polyMesh/polyPatches/constraint/wedge/wedgePolyPatch.C at line 70
    Wedge patch 'frontAndBack_pos' is not planar.
At local face at (0.03625 0.011756863 0.00051282716) the normal (0 -0.043577931 0.99905003) differs from the average normal (-2.8037832e-19 -0.043577951 0.99905003) by 4.0900781e-16
Either correct the patch or split it into planar parts
--> FOAM Warning : 
    From function virtual void Foam::wedgePolyPatch::calcGeometry(Foam::PstreamBuffers&)
    in file meshes/polyMesh/polyPatches/constraint/wedge/wedgePolyPatch.C at line 70
    Wedge patch 'frontAndBack_pos' is not planar.
At local face at (0.03625 0.012400861 0.00054091795) the normal (0 -0.043577968 0.99905003) differs from the average normal (-2.8037832e-19 -0.043577951 0.99905003) by 2.8935914e-16
Either correct the patch or split it into planar parts
--> FOAM Warning : 
    From function virtual void Foam::wedgePolyPatch::calcGeometry(Foam::PstreamBuffers&)
    in file meshes/polyMesh/polyPatches/constraint/wedge/wedgePolyPatch.C at line 70
    Wedge patch 'frontAndBack_pos' is not planar.
At local face at (0.03875 0.011756863 0.00051282716) the normal (0 -0.043577931 0.99905003) differs from the average normal (-2.8037832e-19 -0.043577951 0.99905003) by 4.0900781e-16
Either correct the patch or split it into planar parts
--> FOAM Warning : 
    From function virtual void Foam::wedgePolyPatch::calcGeometry(Foam::PstreamBuffers&)
    in file meshes/polyMesh/polyPatches/constraint/wedge/wedgePolyPatch.C at line 70
    Wedge patch 'frontAndBack_pos' is not planar.
At local face at (0.03875 0.012400861 0.00054091796) the normal (0 -0.043577968 0.99905003) differs from the average normal (-2.8037832e-19 -0.043577951 0.99905003) by 2.8935914e-16
Either correct the patch or split it into planar parts
--> FOAM Warning : 
    From function virtual void Foam::wedgePolyPatch::calcGeometry(Foam::PstreamBuffers&)
    in file meshes/polyMesh/polyPatches/constraint/wedge/wedgePolyPatch.C at line 70
    Wedge patch 'frontAndBack_pos' is not planar.
At local face at (0.04125 0.011756863 0.00051282716) the normal (0 -0.043577931 0.99905003) differs from the average normal (-2.8037832e-19 -0.043577951 0.99905003) by 4.0900781e-16
Either correct the patch or split it into planar parts
--> FOAM Warning : 
    From function virtual void Foam::wedgePolyPatch::calcGeometry(Foam::PstreamBuffers&)
    in file meshes/polyMesh/polyPatches/constraint/wedge/wedgePolyPatch.C at line 70
    Wedge patch 'frontAndBack_pos' is not planar.
At local face at (0.04125 0.012400861 0.00054091796) the normal (0 -0.043577968 0.99905003) differs from the average normal (-2.8037832e-19 -0.043577951 0.99905003) by 2.8935914e-16
Either correct the patch or split it into planar parts
--> FOAM Warning : 
    From function virtual void Foam::wedgePolyPatch::calcGeometry(Foam::PstreamBuffers&)
    in file meshes/polyMesh/polyPatches/constraint/wedge/wedgePolyPatch.C at line 70
    Wedge patch 'frontAndBack_pos' is not planar.
At local face at (0.04375 0.011756863 0.00051282716) the normal (0 -0.043577931 0.99905003) differs from the average normal (-2.8037832e-19 -0.043577951 0.99905003) by 4.0900781e-16
Either correct the patch or split it into planar parts
--> FOAM Warning : 
    From function virtual void Foam::wedgePolyPatch::calcGeometry(Foam::PstreamBuffers&)
    in file meshes/polyMesh/polyPatches/constraint/wedge/wedgePolyPatch.C at line 70
    Wedge patch 'frontAndBack_pos' is not planar.
At local face at (0.04375 0.012400861 0.00054091795) the normal (0 -0.043577968 0.99905003) differs from the average normal (-2.8037832e-19 -0.043577951 0.99905003) by 2.8935914e-16
Either correct the patch or split it into planar parts
--> FOAM Warning : 
    From function virtual void Foam::wedgePolyPatch::calcGeometry(Foam::PstreamBuffers&)
    in file meshes/polyMesh/polyPatches/constraint/wedge/wedgePolyPatch.C at line 70
    Wedge patch 'frontAndBack_pos' is not planar.
At local face at (0.04625 0.011756863 0.00051282716) the normal (0 -0.043577931 0.99905003) differs from the average normal (-2.8037832e-19 -0.043577951 0.99905003) by 4.0900781e-16
Either correct the patch or split it into planar parts
--> FOAM Warning : 
    From function virtual void Foam::wedgePolyPatch::calcGeometry(Foam::PstreamBuffers&)
    in file meshes/polyMesh/polyPatches/constraint/wedge/wedgePolyPatch.C at line 70
    Wedge patch 'frontAndBack_pos' is not planar.
At local face at (0.04625 0.012400861 0.00054091796) the normal (0 -0.043577968 0.99905003) differs from the average normal (-2.8037832e-19 -0.043577951 0.99905003) by 2.8935914e-16
Either correct the patch or split it into planar parts
--> FOAM Warning : 
    From function virtual void Foam::wedgePolyPatch::calcGeometry(Foam::PstreamBuffers&)
    in file meshes/polyMesh/polyPatches/constraint/wedge/wedgePolyPatch.C at line 70
    Wedge patch 'frontAndBack_pos' is not planar.
At local face at (0.04875 0.011756863 0.00051282716) the normal (0 -0.043577931 0.99905003) differs from the average normal (-2.8037832e-19 -0.043577951 0.99905003) by 4.0900781e-16
Either correct the patch or split it into planar parts
--> FOAM Warning : 
    From function virtual void Foam::wedgePolyPatch::calcGeometry(Foam::PstreamBuffers&)
    in file meshes/polyMesh/polyPatches/constraint/wedge/wedgePolyPatch.C at line 70
    Wedge patch 'frontAndBack_pos' is not planar.
At local face at (0.04875 0.012400861 0.00054091796) the normal (0 -0.043577968 0.99905003) differs from the average normal (-2.8037832e-19 -0.043577951 0.99905003) by 2.8935914e-16
Either correct the patch or split it into planar parts
--> FOAM Warning : 
    From function virtual void Foam::wedgePolyPatch::calcGeometry(Foam::PstreamBuffers&)
    in file meshes/polyMesh/polyPatches/constraint/wedge/wedgePolyPatch.C at line 70
    Wedge patch 'frontAndBack_pos' is not planar.
At local face at (0.05125 0.011756863 0.00051282716) the normal (0 -0.043577931 0.99905003) differs from the average normal (-2.8037832e-19 -0.043577951 0.99905003) by 4.0900781e-16
Either correct the patch or split it into planar parts
--> FOAM Warning : 
    From function virtual void Foam::wedgePolyPatch::calcGeometry(Foam::PstreamBuffers&)
    in file meshes/polyMesh/polyPatches/constraint/wedge/wedgePolyPatch.C at line 70
    Wedge patch 'frontAndBack_pos' is not planar.
At local face at (0.05125 0.012400861 0.00054091795) the normal (0 -0.043577968 0.99905003) differs from the average normal (-2.8037832e-19 -0.043577951 0.99905003) by 2.8935914e-16
Either correct the patch or split it into planar parts
--> FOAM Warning : 
    From function virtual void Foam::wedgePolyPatch::calcGeometry(Foam::PstreamBuffers&)
    in file meshes/polyMesh/polyPatches/constraint/wedge/wedgePolyPatch.C at line 70
    Wedge patch 'frontAndBack_pos' is not planar.
At local face at (0.05375 0.011756863 0.00051282716) the normal (0 -0.043577931 0.99905003) differs from the average normal (-2.8037832e-19 -0.043577951 0.99905003) by 4.0900781e-16
Either correct the patch or split it into planar parts
--> FOAM Warning : 
    From function virtual void Foam::wedgePolyPatch::calcGeometry(Foam::PstreamBuffers&)
    in file meshes/polyMesh/polyPatches/constraint/wedge/wedgePolyPatch.C at line 70
    Wedge patch 'frontAndBack_pos' is not planar.
At local face at (0.05375 0.012400861 0.00054091796) the normal (0 -0.043577968 0.99905003) differs from the average normal (-2.8037832e-19 -0.043577951 0.99905003) by 2.8935914e-16
Either correct the patch or split it into planar parts
--> FOAM Warning : 
    From function virtual void Foam::wedgePolyPatch::calcGeometry(Foam::PstreamBuffers&)
    in file meshes/polyMesh/polyPatches/constraint/wedge/wedgePolyPatch.C at line 70
    Wedge patch 'frontAndBack_pos' is not planar.
At local face at (0.05625 0.011756863 0.00051282716) the normal (0 -0.043577931 0.99905003) differs from the average normal (-2.8037832e-19 -0.043577951 0.99905003) by 4.0900781e-16
Either correct the patch or split it into planar parts
--> FOAM Warning : 
    From function virtual void Foam::wedgePolyPatch::calcGeometry(Foam::PstreamBuffers&)
    in file meshes/polyMesh/polyPatches/constraint/wedge/wedgePolyPatch.C at line 70
    Wedge patch 'frontAndBack_pos' is not planar.
At local face at (0.05625 0.012400861 0.00054091796) the normal (0 -0.043577968 0.99905003) differs from the average normal (-2.8037832e-19 -0.043577951 0.99905003) by 2.8935914e-16
Either correct the patch or split it into planar parts
--> FOAM Warning : 
    From function virtual void Foam::wedgePolyPatch::calcGeometry(Foam::PstreamBuffers&)
    in file meshes/polyMesh/polyPatches/constraint/wedge/wedgePolyPatch.C at line 70
    Wedge patch 'frontAndBack_pos' is not planar.
At local face at (0.05875 0.011756863 0.00051282716) the normal (0 -0.043577931 0.99905003) differs from the average normal (-2.8037832e-19 -0.043577951 0.99905003) by 4.0900781e-16
Either correct the patch or split it into planar parts
--> FOAM Warning : 
    From function virtual void Foam::wedgePolyPatch::calcGeometry(Foam::PstreamBuffers&)
    in file meshes/polyMesh/polyPatches/constraint/wedge/wedgePolyPatch.C at line 70
    Wedge patch 'frontAndBack_pos' is not planar.
At local face at (0.05875 0.012400861 0.00054091795) the normal (0 -0.043577968 0.99905003) differs from the average normal (-2.8037832e-19 -0.043577951 0.99905003) by 2.8935914e-16
Either correct the patch or split it into planar parts
--> FOAM Warning : 
    From function virtual void Foam::wedgePolyPatch::calcGeometry(Foam::PstreamBuffers&)
    in file meshes/polyMesh/polyPatches/constraint/wedge/wedgePolyPatch.C at line 70
    Wedge patch 'frontAndBack_pos' is not planar.
At local face at (0.06125 0.011756863 0.00051282716) the normal (0 -0.043577931 0.99905003) differs from the average normal (-2.8037832e-19 -0.043577951 0.99905003) by 4.0900781e-16
Either correct the patch or split it into planar parts
--> FOAM Warning : 
    From function virtual void Foam::wedgePolyPatch::calcGeometry(Foam::PstreamBuffers&)
    in file meshes/polyMesh/polyPatches/constraint/wedge/wedgePolyPatch.C at line 70
    Wedge patch 'frontAndBack_pos' is not planar.
At local face at (0.06125 0.012400861 0.00054091796) the normal (0 -0.043577968 0.99905003) differs from the average normal (-2.8037832e-19 -0.043577951 0.99905003) by 2.8935914e-16
Either correct the patch or split it into planar parts
--> FOAM Warning : 
    From function virtual void Foam::wedgePolyPatch::calcGeometry(Foam::PstreamBuffers&)
    in file meshes/polyMesh/polyPatches/constraint/wedge/wedgePolyPatch.C at line 70
    Wedge patch 'frontAndBack_pos' is not planar.
At local face at (0.06375 0.011756863 0.00051282716) the normal (0 -0.043577931 0.99905003) differs from the average normal (-2.8037832e-19 -0.043577951 0.99905003) by 4.0900781e-16
Either correct the patch or split it into planar parts
--> FOAM Warning : 
    From function virtual void Foam::wedgePolyPatch::calcGeometry(Foam::PstreamBuffers&)
    in file meshes/polyMesh/polyPatches/constraint/wedge/wedgePolyPatch.C at line 70
    Wedge patch 'frontAndBack_pos' is not planar.
At local face at (0.06375 0.012400861 0.00054091796) the normal (0 -0.043577968 0.99905003) differs from the average normal (-2.8037832e-19 -0.043577951 0.99905003) by 2.8935914e-16
Either correct the patch or split it into planar parts
--> FOAM Warning : 
    From function virtual void Foam::wedgePolyPatch::calcGeometry(Foam::PstreamBuffers&)
    in file meshes/polyMesh/polyPatches/constraint/wedge/wedgePolyPatch.C at line 70
    Wedge patch 'frontAndBack_pos' is not planar.
At local face at (0.06625 0.011756863 0.00051282716) the normal (0 -0.043577931 0.99905003) differs from the average normal (-2.8037832e-19 -0.043577951 0.99905003) by 4.0900781e-16
Either correct the patch or split it into planar parts
--> FOAM Warning : 
    From function virtual void Foam::wedgePolyPatch::calcGeometry(Foam::PstreamBuffers&)
    in file meshes/polyMesh/polyPatches/constraint/wedge/wedgePolyPatch.C at line 70
    Wedge patch 'frontAndBack_pos' is not planar.
At local face at (0.06625 0.012400861 0.00054091796) the normal (0 -0.043577968 0.99905003) differs from the average normal (-2.8037832e-19 -0.043577951 0.99905003) by 2.8935914e-16
Either correct the patch or split it into planar parts
--> FOAM Warning : 
    From function virtual void Foam::wedgePolyPatch::calcGeometry(Foam::PstreamBuffers&)
    in file meshes/polyMesh/polyPatches/constraint/wedge/wedgePolyPatch.C at line 70
    Wedge patch 'frontAndBack_pos' is not planar.
At local face at (0.06875 0.011756863 0.00051282716) the normal (0 -0.043577931 0.99905003) differs from the average normal (-2.8037832e-19 -0.043577951 0.99905003) by 4.0900781e-16
Either correct the patch or split it into planar parts
--> FOAM Warning : 
    From function virtual void Foam::wedgePolyPatch::calcGeometry(Foam::PstreamBuffers&)
    in file meshes/polyMesh/polyPatches/constraint/wedge/wedgePolyPatch.C at line 70
    Wedge patch 'frontAndBack_pos' is not planar.
At local face at (0.06875 0.012400861 0.00054091796) the normal (0 -0.043577968 0.99905003) differs from the average normal (-2.8037832e-19 -0.043577951 0.99905003) by 2.8935914e-16
Either correct the patch or split it into planar parts
--> FOAM Warning : 
    From function virtual void Foam::wedgePolyPatch::calcGeometry(Foam::PstreamBuffers&)
    in file meshes/polyMesh/polyPatches/constraint/wedge/wedgePolyPatch.C at line 70
    Wedge patch 'frontAndBack_pos' is not planar.
At local face at (0.07125 0.011756863 0.00051282716) the normal (0 -0.043577931 0.99905003) differs from the average normal (-2.8037832e-19 -0.043577951 0.99905003) by 4.0900781e-16
Either correct the patch or split it into planar parts
--> FOAM Warning : 
    From function virtual void Foam::wedgePolyPatch::calcGeometry(Foam::PstreamBuffers&)
    in file meshes/polyMesh/polyPatches/constraint/wedge/wedgePolyPatch.C at line 70
    Wedge patch 'frontAndBack_pos' is not planar.
At local face at (0.07125 0.012400861 0.00054091795) the normal (0 -0.043577968 0.99905003) differs from the average normal (-2.8037832e-19 -0.043577951 0.99905003) by 2.8935914e-16
Either correct the patch or split it into planar parts
--> FOAM Warning : 
    From function virtual void Foam::wedgePolyPatch::calcGeometry(Foam::PstreamBuffers&)
    in file meshes/polyMesh/polyPatches/constraint/wedge/wedgePolyPatch.C at line 70
    Wedge patch 'frontAndBack_pos' is not planar.
At local face at (0.07375 0.011756863 0.00051282716) the normal (0 -0.043577931 0.99905003) differs from the average normal (-2.8037832e-19 -0.043577951 0.99905003) by 4.0900781e-16
Either correct the patch or split it into planar parts
--> FOAM Warning : 
    From function virtual void Foam::wedgePolyPatch::calcGeometry(Foam::PstreamBuffers&)
    in file meshes/polyMesh/polyPatches/constraint/wedge/wedgePolyPatch.C at line 70
    Wedge patch 'frontAndBack_pos' is not planar.
At local face at (0.07375 0.012400861 0.00054091796) the normal (0 -0.043577968 0.99905003) differs from the average normal (-2.8037832e-19 -0.043577951 0.99905003) by 2.8935914e-16
Either correct the patch or split it into planar parts
--> FOAM Warning : 
    From function virtual void Foam::wedgePolyPatch::calcGeometry(Foam::PstreamBuffers&)
    in file meshes/polyMesh/polyPatches/constraint/wedge/wedgePolyPatch.C at line 70
    Wedge patch 'frontAndBack_pos' is not planar.
At local face at (0.07625 0.011756863 0.00051282716) the normal (0 -0.043577931 0.99905003) differs from the average normal (-2.8037832e-19 -0.043577951 0.99905003) by 4.0900781e-16
Either correct the patch or split it into planar parts
--> FOAM Warning : 
    From function virtual void Foam::wedgePolyPatch::calcGeometry(Foam::PstreamBuffers&)
    in file meshes/polyMesh/polyPatches/constraint/wedge/wedgePolyPatch.C at line 70
    Wedge patch 'frontAndBack_pos' is not planar.
At local face at (0.07625 0.012400861 0.00054091796) the normal (0 -0.043577968 0.99905003) differs from the average normal (-2.8037832e-19 -0.043577951 0.99905003) by 2.8935914e-16
Either correct the patch or split it into planar parts
--> FOAM Warning : 
    From function virtual void Foam::wedgePolyPatch::calcGeometry(Foam::PstreamBuffers&)
    in file meshes/polyMesh/polyPatches/constraint/wedge/wedgePolyPatch.C at line 70
    Wedge patch 'frontAndBack_pos' is not planar.
At local face at (0.07875 0.011756863 0.00051282716) the normal (0 -0.043577931 0.99905003) differs from the average normal (-2.8037832e-19 -0.043577951 0.99905003) by 4.0900781e-16
Either correct the patch or split it into planar parts
--> FOAM Warning : 
    From function virtual void Foam::wedgePolyPatch::calcGeometry(Foam::PstreamBuffers&)
    in file meshes/polyMesh/polyPatches/constraint/wedge/wedgePolyPatch.C at line 70
    Wedge patch 'frontAndBack_pos' is not planar.
At local face at (0.07875 0.012400861 0.00054091796) the normal (0 -0.043577968 0.99905003) differs from the average normal (-2.8037832e-19 -0.043577951 0.99905003) by 2.8935914e-16
Either correct the patch or split it into planar parts
--> FOAM Warning : 
    From function virtual void Foam::wedgePolyPatch::calcGeometry(Foam::PstreamBuffers&)
    in file meshes/polyMesh/polyPatches/constraint/wedge/wedgePolyPatch.C at line 70
    Wedge patch 'frontAndBack_pos' is not planar.
At local face at (0.08125 0.011756863 0.00051282716) the normal (0 -0.043577931 0.99905003) differs from the average normal (-2.8037832e-19 -0.043577951 0.99905003) by 4.0900781e-16
Either correct the patch or split it into planar parts
--> FOAM Warning : 
    From function virtual void Foam::wedgePolyPatch::calcGeometry(Foam::PstreamBuffers&)
    in file meshes/polyMesh/polyPatches/constraint/wedge/wedgePolyPatch.C at line 70
    Wedge patch 'frontAndBack_pos' is not planar.
At local face at (0.08125 0.012400861 0.00054091796) the normal (0 -0.043577968 0.99905003) differs from the average normal (-2.8037832e-19 -0.043577951 0.99905003) by 2.8935914e-16
Either correct the patch or split it into planar parts
--> FOAM Warning : 
    From function virtual void Foam::wedgePolyPatch::calcGeometry(Foam::PstreamBuffers&)
    in file meshes/polyMesh/polyPatches/constraint/wedge/wedgePolyPatch.C at line 70
    Wedge patch 'frontAndBack_pos' is not planar.
At local face at (0.08375 0.011756863 0.00051282716) the normal (0 -0.043577931 0.99905003) differs from the average normal (-2.8037832e-19 -0.043577951 0.99905003) by 4.0900781e-16
Either correct the patch or split it into planar parts
--> FOAM Warning : 
    From function virtual void Foam::wedgePolyPatch::calcGeometry(Foam::PstreamBuffers&)
    in file meshes/polyMesh/polyPatches/constraint/wedge/wedgePolyPatch.C at line 70
    Wedge patch 'frontAndBack_pos' is not planar.
At local face at (0.08375 0.012400861 0.00054091796) the normal (0 -0.043577968 0.99905003) differs from the average normal (-2.8037832e-19 -0.043577951 0.99905003) by 2.8935914e-16
Either correct the patch or split it into planar parts
--> FOAM Warning : 
    From function virtual void Foam::wedgePolyPatch::calcGeometry(Foam::PstreamBuffers&)
    in file meshes/polyMesh/polyPatches/constraint/wedge/wedgePolyPatch.C at line 70
    Wedge patch 'frontAndBack_pos' is not planar.
At local face at (0.08625 0.011756863 0.00051282716) the normal (0 -0.043577931 0.99905003) differs from the average normal (-2.8037832e-19 -0.043577951 0.99905003) by 4.0900781e-16
Either correct the patch or split it into planar parts
--> FOAM Warning : 
    From function virtual void Foam::wedgePolyPatch::calcGeometry(Foam::PstreamBuffers&)
    in file meshes/polyMesh/polyPatches/constraint/wedge/wedgePolyPatch.C at line 70
    Wedge patch 'frontAndBack_pos' is not planar.
At local face at (0.08625 0.012400861 0.00054091795) the normal (0 -0.043577968 0.99905003) differs from the average normal (-2.8037832e-19 -0.043577951 0.99905003) by 2.8935914e-16
Either correct the patch or split it into planar parts
--> FOAM Warning : 
    From function virtual void Foam::wedgePolyPatch::calcGeometry(Foam::PstreamBuffers&)
    in file meshes/polyMesh/polyPatches/constraint/wedge/wedgePolyPatch.C at line 70
    Wedge patch 'frontAndBack_pos' is not planar.
At local face at (0.08875 0.011756863 0.00051282716) the normal (0 -0.043577931 0.99905003) differs from the average normal (-2.8037832e-19 -0.043577951 0.99905003) by 4.0900781e-16
Either correct the patch or split it into planar parts
--> FOAM Warning : 
    From function virtual void Foam::wedgePolyPatch::calcGeometry(Foam::PstreamBuffers&)
    in file meshes/polyMesh/polyPatches/constraint/wedge/wedgePolyPatch.C at line 70
    Wedge patch 'frontAndBack_pos' is not planar.
At local face at (0.08875 0.012400861 0.00054091796) the normal (0 -0.043577968 0.99905003) differs from the average normal (-2.8037832e-19 -0.043577951 0.99905003) by 2.8935914e-16
Either correct the patch or split it into planar parts
--> FOAM Warning : 
    From function virtual void Foam::wedgePolyPatch::calcGeometry(Foam::PstreamBuffers&)
    in file meshes/polyMesh/polyPatches/constraint/wedge/wedgePolyPatch.C at line 70
    Wedge patch 'frontAndBack_pos' is not planar.
At local face at (0.09125 0.011756863 0.00051282716) the normal (0 -0.043577931 0.99905003) differs from the average normal (-2.8037832e-19 -0.043577951 0.99905003) by 4.0900781e-16
Either correct the patch or split it into planar parts
--> FOAM Warning : 
    From function virtual void Foam::wedgePolyPatch::calcGeometry(Foam::PstreamBuffers&)
    in file meshes/polyMesh/polyPatches/constraint/wedge/wedgePolyPatch.C at line 70
    Wedge patch 'frontAndBack_pos' is not planar.
At local face at (0.09125 0.012400861 0.00054091796) the normal (0 -0.043577968 0.99905003) differs from the average normal (-2.8037832e-19 -0.043577951 0.99905003) by 2.8935914e-16
Either correct the patch or split it into planar parts
--> FOAM Warning : 
    From function virtual void Foam::wedgePolyPatch::calcGeometry(Foam::PstreamBuffers&)
    in file meshes/polyMesh/polyPatches/constraint/wedge/wedgePolyPatch.C at line 70
    Wedge patch 'frontAndBack_pos' is not planar.
At local face at (0.09375 0.011756863 0.00051282716) the normal (0 -0.043577931 0.99905003) differs from the average normal (-2.8037832e-19 -0.043577951 0.99905003) by 4.0900781e-16
Either correct the patch or split it into planar parts
--> FOAM Warning : 
    From function virtual void Foam::wedgePolyPatch::calcGeometry(Foam::PstreamBuffers&)
    in file meshes/polyMesh/polyPatches/constraint/wedge/wedgePolyPatch.C at line 70
    Wedge patch 'frontAndBack_pos' is not planar.
At local face at (0.09375 0.012400861 0.00054091796) the normal (0 -0.043577968 0.99905003) differs from the average normal (-2.8037832e-19 -0.043577951 0.99905003) by 2.8935914e-16
Either correct the patch or split it into planar parts
--> FOAM Warning : 
    From function virtual void Foam::wedgePolyPatch::calcGeometry(Foam::PstreamBuffers&)
    in file meshes/polyMesh/polyPatches/constraint/wedge/wedgePolyPatch.C at line 70
    Wedge patch 'frontAndBack_pos' is not planar.
At local face at (0.09625 0.011756863 0.00051282716) the normal (0 -0.043577931 0.99905003) differs from the average normal (-2.8037832e-19 -0.043577951 0.99905003) by 4.0900781e-16
Either correct the patch or split it into planar parts
--> FOAM Warning : 
    From function virtual void Foam::wedgePolyPatch::calcGeometry(Foam::PstreamBuffers&)
    in file meshes/polyMesh/polyPatches/constraint/wedge/wedgePolyPatch.C at line 70
    Wedge patch 'frontAndBack_pos' is not planar.
At local face at (0.09625 0.012400861 0.00054091796) the normal (0 -0.043577968 0.99905003) differs from the average normal (-2.8037832e-19 -0.043577951 0.99905003) by 2.8935914e-16
Either correct the patch or split it into planar parts
--> FOAM Warning : 
    From function virtual void Foam::wedgePolyPatch::calcGeometry(Foam::PstreamBuffers&)
    in file meshes/polyMesh/polyPatches/constraint/wedge/wedgePolyPatch.C at line 70
    Wedge patch 'frontAndBack_pos' is not planar.
At local face at (0.09875 0.011756863 0.00051282716) the normal (0 -0.043577931 0.99905003) differs from the average normal (-2.8037832e-19 -0.043577951 0.99905003) by 4.0900781e-16
Either correct the patch or split it into planar parts
--> FOAM Warning : 
    From function virtual void Foam::wedgePolyPatch::calcGeometry(Foam::PstreamBuffers&)
    in file meshes/polyMesh/polyPatches/constraint/wedge/wedgePolyPatch.C at line 70
    Wedge patch 'frontAndBack_pos' is not planar.
At local face at (0.09875 0.012400861 0.00054091796) the normal (0 -0.043577968 0.99905003) differs from the average normal (-2.8037832e-19 -0.043577951 0.99905003) by 2.8935914e-16
Either correct the patch or split it into planar parts
--> FOAM Warning : 
    From function virtual void Foam::wedgePolyPatch::calcGeometry(Foam::PstreamBuffers&)
    in file meshes/polyMesh/polyPatches/constraint/wedge/wedgePolyPatch.C at line 70
    Wedge patch 'frontAndBack_pos' is not planar.
At local face at (0.10125 0.011756863 0.00051282716) the normal (0 -0.043577931 0.99905003) differs from the average normal (-2.8037832e-19 -0.043577951 0.99905003) by 4.0900781e-16
Either correct the patch or split it into planar parts
--> FOAM Warning : 
    From function virtual void Foam::wedgePolyPatch::calcGeometry(Foam::PstreamBuffers&)
    in file meshes/polyMesh/polyPatches/constraint/wedge/wedgePolyPatch.C at line 70
    Wedge patch 'frontAndBack_pos' is not planar.
At local face at (0.10125 0.012400861 0.00054091795) the normal (0 -0.043577968 0.99905003) differs from the average normal (-2.8037832e-19 -0.043577951 0.99905003) by 2.8935914e-16
Either correct the patch or split it into planar parts
--> FOAM Warning : 
    From function virtual void Foam::wedgePolyPatch::calcGeometry(Foam::PstreamBuffers&)
    in file meshes/polyMesh/polyPatches/constraint/wedge/wedgePolyPatch.C at line 70
    Wedge patch 'frontAndBack_pos' is not planar.
At local face at (0.10375 0.011756863 0.00051282716) the normal (0 -0.043577931 0.99905003) differs from the average normal (-2.8037832e-19 -0.043577951 0.99905003) by 4.0900781e-16
Either correct the patch or split it into planar parts
--> FOAM Warning : 
    From function virtual void Foam::wedgePolyPatch::calcGeometry(Foam::PstreamBuffers&)
    in file meshes/polyMesh/polyPatches/constraint/wedge/wedgePolyPatch.C at line 70
    Wedge patch 'frontAndBack_pos' is not planar.
At local face at (0.10375 0.012400861 0.00054091796) the normal (0 -0.043577968 0.99905003) differs from the average normal (-2.8037832e-19 -0.043577951 0.99905003) by 2.8935914e-16
Either correct the patch or split it into planar parts
--> FOAM Warning : 
    From function virtual void Foam::wedgePolyPatch::calcGeometry(Foam::PstreamBuffers&)
    in file meshes/polyMesh/polyPatches/constraint/wedge/wedgePolyPatch.C at line 70
    Wedge patch 'frontAndBack_pos' is not planar.
At local face at (0.10625 0.011756863 0.00051282716) the normal (0 -0.043577931 0.99905003) differs from the average normal (-2.8037832e-19 -0.043577951 0.99905003) by 4.0900781e-16
Either correct the patch or split it into planar parts
--> FOAM Warning : 
    From function virtual void Foam::wedgePolyPatch::calcGeometry(Foam::PstreamBuffers&)
    in file meshes/polyMesh/polyPatches/constraint/wedge/wedgePolyPatch.C at line 70
    Wedge patch 'frontAndBack_pos' is not planar.
At local face at (0.10625 0.012400861 0.00054091796) the normal (0 -0.043577968 0.99905003) differs from the average normal (-2.8037832e-19 -0.043577951 0.99905003) by 2.8935914e-16
Either correct the patch or split it into planar parts
--> FOAM Warning : 
    From function virtual void Foam::wedgePolyPatch::calcGeometry(Foam::PstreamBuffers&)
    in file meshes/polyMesh/polyPatches/constraint/wedge/wedgePolyPatch.C at line 70
    Wedge patch 'frontAndBack_pos' is not planar.
At local face at (0.10875 0.011756863 0.00051282716) the normal (0 -0.043577931 0.99905003) differs from the average normal (-2.8037832e-19 -0.043577951 0.99905003) by 4.0900781e-16
Either correct the patch or split it into planar parts
--> FOAM Warning : 
    From function virtual void Foam::wedgePolyPatch::calcGeometry(Foam::PstreamBuffers&)
    in file meshes/polyMesh/polyPatches/constraint/wedge/wedgePolyPatch.C at line 70
    Wedge patch 'frontAndBack_pos' is not planar.
At local face at (0.10875 0.012400861 0.00054091796) the normal (0 -0.043577968 0.99905003) differs from the average normal (-2.8037832e-19 -0.043577951 0.99905003) by 2.8935914e-16
Either correct the patch or split it into planar parts
--> FOAM Warning : 
    From function virtual void Foam::wedgePolyPatch::calcGeometry(Foam::PstreamBuffers&)
    in file meshes/polyMesh/polyPatches/constraint/wedge/wedgePolyPatch.C at line 70
    Wedge patch 'frontAndBack_pos' is not planar.
At local face at (0.11125 0.011756863 0.00051282716) the normal (0 -0.043577931 0.99905003) differs from the average normal (-2.8037832e-19 -0.043577951 0.99905003) by 4.0900781e-16
Either correct the patch or split it into planar parts
--> FOAM Warning : 
    From function virtual void Foam::wedgePolyPatch::calcGeometry(Foam::PstreamBuffers&)
    in file meshes/polyMesh/polyPatches/constraint/wedge/wedgePolyPatch.C at line 70
    Wedge patch 'frontAndBack_pos' is not planar.
At local face at (0.11125 0.012400861 0.00054091796) the normal (0 -0.043577968 0.99905003) differs from the average normal (-2.8037832e-19 -0.043577951 0.99905003) by 2.8935914e-16
Either correct the patch or split it into planar parts
--> FOAM Warning : 
    From function virtual void Foam::wedgePolyPatch::calcGeometry(Foam::PstreamBuffers&)
    in file meshes/polyMesh/polyPatches/constraint/wedge/wedgePolyPatch.C at line 70
    Wedge patch 'frontAndBack_pos' is not planar.
At local face at (0.11375 0.011756863 0.00051282716) the normal (0 -0.043577931 0.99905003) differs from the average normal (-2.8037832e-19 -0.043577951 0.99905003) by 4.0900781e-16
Either correct the patch or split it into planar parts
--> FOAM Warning : 
    From function virtual void Foam::wedgePolyPatch::calcGeometry(Foam::PstreamBuffers&)
    in file meshes/polyMesh/polyPatches/constraint/wedge/wedgePolyPatch.C at line 70
    Wedge patch 'frontAndBack_pos' is not planar.
At local face at (0.11375 0.012400861 0.00054091796) the normal (0 -0.043577968 0.99905003) differs from the average normal (-2.8037832e-19 -0.043577951 0.99905003) by 2.8935914e-16
Either correct the patch or split it into planar parts
--> FOAM Warning : 
    From function virtual void Foam::wedgePolyPatch::calcGeometry(Foam::PstreamBuffers&)
    in file meshes/polyMesh/polyPatches/constraint/wedge/wedgePolyPatch.C at line 70
    Wedge patch 'frontAndBack_pos' is not planar.
At local face at (0.11625 0.011756863 0.00051282716) the normal (0 -0.043577931 0.99905003) differs from the average normal (-2.8037832e-19 -0.043577951 0.99905003) by 4.0900781e-16
Either correct the patch or split it into planar parts
--> FOAM Warning : 
    From function virtual void Foam::wedgePolyPatch::calcGeometry(Foam::PstreamBuffers&)
    in file meshes/polyMesh/polyPatches/constraint/wedge/wedgePolyPatch.C at line 70
    Wedge patch 'frontAndBack_pos' is not planar.
At local face at (0.11625 0.012400861 0.00054091795) the normal (0 -0.043577968 0.99905003) differs from the average normal (-2.8037832e-19 -0.043577951 0.99905003) by 2.8935914e-16
Either correct the patch or split it into planar parts
--> FOAM Warning : 
    From function virtual void Foam::wedgePolyPatch::calcGeometry(Foam::PstreamBuffers&)
    in file meshes/polyMesh/polyPatches/constraint/wedge/wedgePolyPatch.C at line 70
    Wedge patch 'frontAndBack_pos' is not planar.
At local face at (0.11875 0.011756863 0.00051282716) the normal (0 -0.043577931 0.99905003) differs from the average normal (-2.8037832e-19 -0.043577951 0.99905003) by 4.0900781e-16
Either correct the patch or split it into planar parts
--> FOAM Warning : 
    From function virtual void Foam::wedgePolyPatch::calcGeometry(Foam::PstreamBuffers&)
    in file meshes/polyMesh/polyPatches/constraint/wedge/wedgePolyPatch.C at line 70
    Wedge patch 'frontAndBack_pos' is not planar.
At local face at (0.11875 0.012400861 0.00054091796) the normal (0 -0.043577968 0.99905003) differs from the average normal (-2.8037832e-19 -0.043577951 0.99905003) by 2.8935914e-16
Either correct the patch or split it into planar parts
--> FOAM Warning : 
    From function virtual void Foam::wedgePolyPatch::calcGeometry(Foam::PstreamBuffers&)
    in file meshes/polyMesh/polyPatches/constraint/wedge/wedgePolyPatch.C at line 70
    Wedge patch 'frontAndBack_pos' is not planar.
At local face at (0.12125 0.011756863 0.00051282716) the normal (0 -0.043577931 0.99905003) differs from the average normal (-2.8037832e-19 -0.043577951 0.99905003) by 4.0900781e-16
Either correct the patch or split it into planar parts
--> FOAM Warning : 
    From function virtual void Foam::wedgePolyPatch::calcGeometry(Foam::PstreamBuffers&)
    in file meshes/polyMesh/polyPatches/constraint/wedge/wedgePolyPatch.C at line 70
    Wedge patch 'frontAndBack_pos' is not planar.
At local face at (0.12125 0.012400861 0.00054091796) the normal (0 -0.043577968 0.99905003) differs from the average normal (-2.8037832e-19 -0.043577951 0.99905003) by 2.8935914e-16
Either correct the patch or split it into planar parts
--> FOAM Warning : 
    From function virtual void Foam::wedgePolyPatch::calcGeometry(Foam::PstreamBuffers&)
    in file meshes/polyMesh/polyPatches/constraint/wedge/wedgePolyPatch.C at line 70
    Wedge patch 'frontAndBack_pos' is not planar.
At local face at (0.12375 0.011756863 0.00051282716) the normal (0 -0.043577931 0.99905003) differs from the average normal (-2.8037832e-19 -0.043577951 0.99905003) by 4.0900781e-16
Either correct the patch or split it into planar parts
--> FOAM Warning : 
    From function virtual void Foam::wedgePolyPatch::calcGeometry(Foam::PstreamBuffers&)
    in file meshes/polyMesh/polyPatches/constraint/wedge/wedgePolyPatch.C at line 70
    Wedge patch 'frontAndBack_pos' is not planar.
At local face at (0.12375 0.012400861 0.00054091796) the normal (0 -0.043577968 0.99905003) differs from the average normal (-2.8037832e-19 -0.043577951 0.99905003) by 2.8935914e-16
Either correct the patch or split it into planar parts
--> FOAM Warning : 
    From function virtual void Foam::wedgePolyPatch::calcGeometry(Foam::PstreamBuffers&)
    in file meshes/polyMesh/polyPatches/constraint/wedge/wedgePolyPatch.C at line 70
    Wedge patch 'frontAndBack_pos' is not planar.
At local face at (0.12625 0.011756863 0.00051282716) the normal (0 -0.043577931 0.99905003) differs from the average normal (-2.8037832e-19 -0.043577951 0.99905003) by 4.0900781e-16
Either correct the patch or split it into planar parts
--> FOAM Warning : 
    From function virtual void Foam::wedgePolyPatch::calcGeometry(Foam::PstreamBuffers&)
    in file meshes/polyMesh/polyPatches/constraint/wedge/wedgePolyPatch.C at line 70
    Wedge patch 'frontAndBack_pos' is not planar.
At local face at (0.12625 0.012400861 0.00054091796) the normal (0 -0.043577968 0.99905003) differs from the average normal (-2.8037832e-19 -0.043577951 0.99905003) by 2.8935914e-16
Either correct the patch or split it into planar parts
--> FOAM Warning : 
    From function virtual void Foam::wedgePolyPatch::calcGeometry(Foam::PstreamBuffers&)
    in file meshes/polyMesh/polyPatches/constraint/wedge/wedgePolyPatch.C at line 70
    Wedge patch 'frontAndBack_pos' is not planar.
At local face at (0.12875 0.011756863 0.00051282716) the normal (0 -0.043577931 0.99905003) differs from the average normal (-2.8037832e-19 -0.043577951 0.99905003) by 4.0900781e-16
Either correct the patch or split it into planar parts
--> FOAM Warning : 
    From function virtual void Foam::wedgePolyPatch::calcGeometry(Foam::PstreamBuffers&)
    in file meshes/polyMesh/polyPatches/constraint/wedge/wedgePolyPatch.C at line 70
    Wedge patch 'frontAndBack_pos' is not planar.
At local face at (0.12875 0.012400861 0.00054091796) the normal (0 -0.043577968 0.99905003) differs from the average normal (-2.8037832e-19 -0.043577951 0.99905003) by 2.8935914e-16
Either correct the patch or split it into planar parts
--> FOAM Warning : 
    From function virtual void Foam::wedgePolyPatch::calcGeometry(Foam::PstreamBuffers&)
    in file meshes/polyMesh/polyPatches/constraint/wedge/wedgePolyPatch.C at line 70
    Wedge patch 'frontAndBack_pos' is not planar.
At local face at (0.13125 0.011756863 0.00051282716) the normal (0 -0.043577931 0.99905003) differs from the average normal (-2.8037832e-19 -0.043577951 0.99905003) by 4.0900781e-16
Either correct the patch or split it into planar parts
--> FOAM Warning : 
    From function virtual void Foam::wedgePolyPatch::calcGeometry(Foam::PstreamBuffers&)
    in file meshes/polyMesh/polyPatches/constraint/wedge/wedgePolyPatch.C at line 70
    Wedge patch 'frontAndBack_pos' is not planar.
At local face at (0.13125 0.012400861 0.00054091796) the normal (0 -0.043577968 0.99905003) differs from the average normal (-2.8037832e-19 -0.043577951 0.99905003) by 2.8935914e-16
Either correct the patch or split it into planar parts
--> FOAM Warning : 
    From function virtual void Foam::wedgePolyPatch::calcGeometry(Foam::PstreamBuffers&)
    in file meshes/polyMesh/polyPatches/constraint/wedge/wedgePolyPatch.C at line 70
    Wedge patch 'frontAndBack_pos' is not planar.
At local face at (0.13375 0.011756863 0.00051282716) the normal (0 -0.043577931 0.99905003) differs from the average normal (-2.8037832e-19 -0.043577951 0.99905003) by 4.0900781e-16
Either correct the patch or split it into planar parts
--> FOAM Warning : 
    From function virtual void Foam::wedgePolyPatch::calcGeometry(Foam::PstreamBuffers&)
    in file meshes/polyMesh/polyPatches/constraint/wedge/wedgePolyPatch.C at line 70
    Wedge patch 'frontAndBack_pos' is not planar.
At local face at (0.13375 0.012400861 0.00054091796) the normal (0 -0.043577968 0.99905003) differs from the average normal (-2.8037832e-19 -0.043577951 0.99905003) by 2.8935914e-16
Either correct the patch or split it into planar parts
--> FOAM Warning : 
    From function virtual void Foam::wedgePolyPatch::calcGeometry(Foam::PstreamBuffers&)
    in file meshes/polyMesh/polyPatches/constraint/wedge/wedgePolyPatch.C at line 70
    Wedge patch 'frontAndBack_pos' is not planar.
At local face at (0.13625 0.011756863 0.00051282716) the normal (0 -0.043577931 0.99905003) differs from the average normal (-2.8037832e-19 -0.043577951 0.99905003) by 4.0900781e-16
Either correct the patch or split it into planar parts
--> FOAM Warning : 
    From function virtual void Foam::wedgePolyPatch::calcGeometry(Foam::PstreamBuffers&)
    in file meshes/polyMesh/polyPatches/constraint/wedge/wedgePolyPatch.C at line 70
    Wedge patch 'frontAndBack_pos' is not planar.
At local face at (0.13625 0.012400861 0.00054091796) the normal (0 -0.043577968 0.99905003) differs from the average normal (-2.8037832e-19 -0.043577951 0.99905003) by 2.8935914e-16
Either correct the patch or split it into planar parts
--> FOAM Warning : 
    From function virtual void Foam::wedgePolyPatch::calcGeometry(Foam::PstreamBuffers&)
    in file meshes/polyMesh/polyPatches/constraint/wedge/wedgePolyPatch.C at line 70
    Wedge patch 'frontAndBack_pos' is not planar.
At local face at (0.13875 0.011756863 0.00051282716) the normal (0 -0.043577931 0.99905003) differs from the average normal (-2.8037832e-19 -0.043577951 0.99905003) by 4.0900781e-16
Either correct the patch or split it into planar parts
--> FOAM Warning : 
    From function virtual void Foam::wedgePolyPatch::calcGeometry(Foam::PstreamBuffers&)
    in file meshes/polyMesh/polyPatches/constraint/wedge/wedgePolyPatch.C at line 70
    Wedge patch 'frontAndBack_pos' is not planar.
At local face at (0.13875 0.012400861 0.00054091796) the normal (0 -0.043577968 0.99905003) differs from the average normal (-2.8037832e-19 -0.043577951 0.99905003) by 2.8935914e-16
Either correct the patch or split it into planar parts
--> FOAM Warning : 
    From function virtual void Foam::wedgePolyPatch::calcGeometry(Foam::PstreamBuffers&)
    in file meshes/polyMesh/polyPatches/constraint/wedge/wedgePolyPatch.C at line 70
    Wedge patch 'frontAndBack_pos' is not planar.
At local face at (0.14125 0.011756863 0.00051282716) the normal (0 -0.043577931 0.99905003) differs from the average normal (-2.8037832e-19 -0.043577951 0.99905003) by 4.0900781e-16
Either correct the patch or split it into planar parts
--> FOAM Warning : 
    From function virtual void Foam::wedgePolyPatch::calcGeometry(Foam::PstreamBuffers&)
    in file meshes/polyMesh/polyPatches/constraint/wedge/wedgePolyPatch.C at line 70
    Wedge patch 'frontAndBack_pos' is not planar.
At local face at (0.14125 0.012400861 0.00054091796) the normal (0 -0.043577968 0.99905003) differs from the average normal (-2.8037832e-19 -0.043577951 0.99905003) by 2.8935914e-16
Either correct the patch or split it into planar parts
--> FOAM Warning : 
    From function virtual void Foam::wedgePolyPatch::calcGeometry(Foam::PstreamBuffers&)
    in file meshes/polyMesh/polyPatches/constraint/wedge/wedgePolyPatch.C at line 70
    Wedge patch 'frontAndBack_pos' is not planar.
At local face at (0.14375 0.011756863 0.00051282716) the normal (0 -0.043577931 0.99905003) differs from the average normal (-2.8037832e-19 -0.043577951 0.99905003) by 4.0900781e-16
Either correct the patch or split it into planar parts
--> FOAM Warning : 
    From function virtual void Foam::wedgePolyPatch::calcGeometry(Foam::PstreamBuffers&)
    in file meshes/polyMesh/polyPatches/constraint/wedge/wedgePolyPatch.C at line 70
    Wedge patch 'frontAndBack_pos' is not planar.
At local face at (0.14375 0.012400861 0.00054091796) the normal (0 -0.043577968 0.99905003) differs from the average normal (-2.8037832e-19 -0.043577951 0.99905003) by 2.8935914e-16
Either correct the patch or split it into planar parts
--> FOAM Warning : 
    From function virtual void Foam::wedgePolyPatch::calcGeometry(Foam::PstreamBuffers&)
    in file meshes/polyMesh/polyPatches/constraint/wedge/wedgePolyPatch.C at line 70
    Wedge patch 'frontAndBack_pos' is not planar.
At local face at (0.14625 0.011756863 0.00051282716) the normal (0 -0.043577931 0.99905003) differs from the average normal (-2.8037832e-19 -0.043577951 0.99905003) by 4.0900781e-16
Either correct the patch or split it into planar parts
--> FOAM Warning : 
    From function virtual void Foam::wedgePolyPatch::calcGeometry(Foam::PstreamBuffers&)
    in file meshes/polyMesh/polyPatches/constraint/wedge/wedgePolyPatch.C at line 70
    Wedge patch 'frontAndBack_pos' is not planar.
At local face at (0.14625 0.012400861 0.00054091796) the normal (0 -0.043577968 0.99905003) differs from the average normal (-2.8037832e-19 -0.043577951 0.99905003) by 2.8935914e-16
Either correct the patch or split it into planar parts
--> FOAM Warning : 
    From function virtual void Foam::wedgePolyPatch::calcGeometry(Foam::PstreamBuffers&)
    in file meshes/polyMesh/polyPatches/constraint/wedge/wedgePolyPatch.C at line 70
    Wedge patch 'frontAndBack_pos' is not planar.
At local face at (0.14875 0.011756863 0.00051282716) the normal (0 -0.043577931 0.99905003) differs from the average normal (-2.8037832e-19 -0.043577951 0.99905003) by 4.0900781e-16
Either correct the patch or split it into planar parts
--> FOAM Warning : 
    From function virtual void Foam::wedgePolyPatch::calcGeometry(Foam::PstreamBuffers&)
    in file meshes/polyMesh/polyPatches/constraint/wedge/wedgePolyPatch.C at line 70
    Wedge patch 'frontAndBack_pos' is not planar.
At local face at (0.14875 0.012400861 0.00054091796) the normal (0 -0.043577968 0.99905003) differs from the average normal (-2.8037832e-19 -0.043577951 0.99905003) by 2.8935914e-16
Either correct the patch or split it into planar parts
--> FOAM Warning : 
    From function virtual void Foam::wedgePolyPatch::calcGeometry(Foam::PstreamBuffers&)
    in file meshes/polyMesh/polyPatches/constraint/wedge/wedgePolyPatch.C at line 70
    Wedge patch 'frontAndBack_pos' is not planar.
At local face at (0.15125 0.011756863 0.00051282716) the normal (0 -0.043577931 0.99905003) differs from the average normal (-2.8037832e-19 -0.043577951 0.99905003) by 4.0900781e-16
Either correct the patch or split it into planar parts
--> FOAM Warning : 
    From function virtual void Foam::wedgePolyPatch::calcGeometry(Foam::PstreamBuffers&)
    in file meshes/polyMesh/polyPatches/constraint/wedge/wedgePolyPatch.C at line 70
    Wedge patch 'frontAndBack_pos' is not planar.
At local face at (0.15125 0.012400861 0.00054091796) the normal (0 -0.043577968 0.99905003) differs from the average normal (-2.8037832e-19 -0.043577951 0.99905003) by 2.8935914e-16
Either correct the patch or split it into planar parts
--> FOAM Warning : 
    From function virtual void Foam::wedgePolyPatch::calcGeometry(Foam::PstreamBuffers&)
    in file meshes/polyMesh/polyPatches/constraint/wedge/wedgePolyPatch.C at line 70
    Wedge patch 'frontAndBack_pos' is not planar.
At local face at (0.15375 0.011756863 0.00051282716) the normal (0 -0.043577931 0.99905003) differs from the average normal (-2.8037832e-19 -0.043577951 0.99905003) by 4.0900781e-16
Either correct the patch or split it into planar parts
--> FOAM Warning : 
    From function virtual void Foam::wedgePolyPatch::calcGeometry(Foam::PstreamBuffers&)
    in file meshes/polyMesh/polyPatches/constraint/wedge/wedgePolyPatch.C at line 70
    Wedge patch 'frontAndBack_pos' is not planar.
At local face at (0.15375 0.012400861 0.00054091796) the normal (0 -0.043577968 0.99905003) differs from the average normal (-2.8037832e-19 -0.043577951 0.99905003) by 2.8935914e-16
Either correct the patch or split it into planar parts
--> FOAM Warning : 
    From function virtual void Foam::wedgePolyPatch::calcGeometry(Foam::PstreamBuffers&)
    in file meshes/polyMesh/polyPatches/constraint/wedge/wedgePolyPatch.C at line 70
    Wedge patch 'frontAndBack_pos' is not planar.
At local face at (0.15625 0.011756863 0.00051282716) the normal (0 -0.043577931 0.99905003) differs from the average normal (-2.8037832e-19 -0.043577951 0.99905003) by 4.0900781e-16
Either correct the patch or split it into planar parts
--> FOAM Warning : 
    From function virtual void Foam::wedgePolyPatch::calcGeometry(Foam::PstreamBuffers&)
    in file meshes/polyMesh/polyPatches/constraint/wedge/wedgePolyPatch.C at line 70
    Wedge patch 'frontAndBack_pos' is not planar.
At local face at (0.15625 0.012400861 0.00054091796) the normal (0 -0.043577968 0.99905003) differs from the average normal (-2.8037832e-19 -0.043577951 0.99905003) by 2.8935914e-16
Either correct the patch or split it into planar parts
--> FOAM Warning : 
    From function virtual void Foam::wedgePolyPatch::calcGeometry(Foam::PstreamBuffers&)
    in file meshes/polyMesh/polyPatches/constraint/wedge/wedgePolyPatch.C at line 70
    Wedge patch 'frontAndBack_pos' is not planar.
At local face at (0.15875 0.011756863 0.00051282716) the normal (0 -0.043577931 0.99905003) differs from the average normal (-2.8037832e-19 -0.043577951 0.99905003) by 4.0900781e-16
Either correct the patch or split it into planar parts
--> FOAM Warning : 
    From function virtual void Foam::wedgePolyPatch::calcGeometry(Foam::PstreamBuffers&)
    in file meshes/polyMesh/polyPatches/constraint/wedge/wedgePolyPatch.C at line 70
    Wedge patch 'frontAndBack_pos' is not planar.
At local face at (0.15875 0.012400861 0.00054091796) the normal (0 -0.043577968 0.99905003) differs from the average normal (-2.8037832e-19 -0.043577951 0.99905003) by 2.8935914e-16
Either correct the patch or split it into planar parts
--> FOAM Warning : 
    From function virtual void Foam::wedgePolyPatch::calcGeometry(Foam::PstreamBuffers&)
    in file meshes/polyMesh/polyPatches/constraint/wedge/wedgePolyPatch.C at line 70
    Wedge patch 'frontAndBack_pos' is not planar.
At local face at (0.16125 0.011756863 0.00051282716) the normal (0 -0.043577931 0.99905003) differs from the average normal (-2.8037832e-19 -0.043577951 0.99905003) by 4.0900781e-16
Either correct the patch or split it into planar parts
--> FOAM Warning : 
    From function virtual void Foam::wedgePolyPatch::calcGeometry(Foam::PstreamBuffers&)
    in file meshes/polyMesh/polyPatches/constraint/wedge/wedgePolyPatch.C at line 70
    Wedge patch 'frontAndBack_pos' is not planar.
At local face at (0.16125 0.012400861 0.00054091796) the normal (0 -0.043577968 0.99905003) differs from the average normal (-2.8037832e-19 -0.043577951 0.99905003) by 2.8935914e-16
Either correct the patch or split it into planar parts
--> FOAM Warning : 
    From function virtual void Foam::wedgePolyPatch::calcGeometry(Foam::PstreamBuffers&)
    in file meshes/polyMesh/polyPatches/constraint/wedge/wedgePolyPatch.C at line 70
    Wedge patch 'frontAndBack_pos' is not planar.
At local face at (0.16375 0.011756863 0.00051282716) the normal (0 -0.043577931 0.99905003) differs from the average normal (-2.8037832e-19 -0.043577951 0.99905003) by 4.0900781e-16
Either correct the patch or split it into planar parts
--> FOAM Warning : 
    From function virtual void Foam::wedgePolyPatch::calcGeometry(Foam::PstreamBuffers&)
    in file meshes/polyMesh/polyPatches/constraint/wedge/wedgePolyPatch.C at line 70
    Wedge patch 'frontAndBack_pos' is not planar.
At local face at (0.16375 0.012400861 0.00054091796) the normal (0 -0.043577968 0.99905003) differs from the average normal (-2.8037832e-19 -0.043577951 0.99905003) by 2.8935914e-16
Either correct the patch or split it into planar parts
--> FOAM Warning : 
    From function virtual void Foam::wedgePolyPatch::calcGeometry(Foam::PstreamBuffers&)
    in file meshes/polyMesh/polyPatches/constraint/wedge/wedgePolyPatch.C at line 70
    Wedge patch 'frontAndBack_pos' is not planar.
At local face at (0.16625 0.011756863 0.00051282716) the normal (0 -0.043577931 0.99905003) differs from the average normal (-2.8037832e-19 -0.043577951 0.99905003) by 4.0900781e-16
Either correct the patch or split it into planar parts
--> FOAM Warning : 
    From function virtual void Foam::wedgePolyPatch::calcGeometry(Foam::PstreamBuffers&)
    in file meshes/polyMesh/polyPatches/constraint/wedge/wedgePolyPatch.C at line 70
    Wedge patch 'frontAndBack_pos' is not planar.
At local face at (0.16625 0.012400861 0.00054091796) the normal (0 -0.043577968 0.99905003) differs from the average normal (-2.8037832e-19 -0.043577951 0.99905003) by 2.8935914e-16
Either correct the patch or split it into planar parts
--> FOAM Warning : 
    From function virtual void Foam::wedgePolyPatch::calcGeometry(Foam::PstreamBuffers&)
    in file meshes/polyMesh/polyPatches/constraint/wedge/wedgePolyPatch.C at line 70
    Wedge patch 'frontAndBack_pos' is not planar.
At local face at (0.16875 0.011756863 0.00051282716) the normal (0 -0.043577931 0.99905003) differs from the average normal (-2.8037832e-19 -0.043577951 0.99905003) by 4.0900781e-16
Either correct the patch or split it into planar parts
--> FOAM Warning : 
    From function virtual void Foam::wedgePolyPatch::calcGeometry(Foam::PstreamBuffers&)
    in file meshes/polyMesh/polyPatches/constraint/wedge/wedgePolyPatch.C at line 70
    Wedge patch 'frontAndBack_pos' is not planar.
At local face at (0.16875 0.012400861 0.00054091796) the normal (0 -0.043577968 0.99905003) differs from the average normal (-2.8037832e-19 -0.043577951 0.99905003) by 2.8935914e-16
Either correct the patch or split it into planar parts
--> FOAM Warning : 
    From function virtual void Foam::wedgePolyPatch::calcGeometry(Foam::PstreamBuffers&)
    in file meshes/polyMesh/polyPatches/constraint/wedge/wedgePolyPatch.C at line 70
    Wedge patch 'frontAndBack_pos' is not planar.
At local face at (0.17125 0.011756863 0.00051282716) the normal (0 -0.043577931 0.99905003) differs from the average normal (-2.8037832e-19 -0.043577951 0.99905003) by 4.0900781e-16
Either correct the patch or split it into planar parts
--> FOAM Warning : 
    From function virtual void Foam::wedgePolyPatch::calcGeometry(Foam::PstreamBuffers&)
    in file meshes/polyMesh/polyPatches/constraint/wedge/wedgePolyPatch.C at line 70
    Wedge patch 'frontAndBack_pos' is not planar.
At local face at (0.17125 0.012400861 0.00054091796) the normal (0 -0.043577968 0.99905003) differs from the average normal (-2.8037832e-19 -0.043577951 0.99905003) by 2.8935914e-16
Either correct the patch or split it into planar parts
--> FOAM Warning : 
    From function virtual void Foam::wedgePolyPatch::calcGeometry(Foam::PstreamBuffers&)
    in file meshes/polyMesh/polyPatches/constraint/wedge/wedgePolyPatch.C at line 70
    Wedge patch 'frontAndBack_pos' is not planar.
At local face at (0.17375 0.011756863 0.00051282716) the normal (0 -0.043577931 0.99905003) differs from the average normal (-2.8037832e-19 -0.043577951 0.99905003) by 4.0900781e-16
Either correct the patch or split it into planar parts
--> FOAM Warning : 
    From function virtual void Foam::wedgePolyPatch::calcGeometry(Foam::PstreamBuffers&)
    in file meshes/polyMesh/polyPatches/constraint/wedge/wedgePolyPatch.C at line 70
    Wedge patch 'frontAndBack_pos' is not planar.
At local face at (0.17375 0.012400861 0.00054091796) the normal (0 -0.043577968 0.99905003) differs from the average normal (-2.8037832e-19 -0.043577951 0.99905003) by 2.8935914e-16
Either correct the patch or split it into planar parts
--> FOAM Warning : 
    From function virtual void Foam::wedgePolyPatch::calcGeometry(Foam::PstreamBuffers&)
    in file meshes/polyMesh/polyPatches/constraint/wedge/wedgePolyPatch.C at line 70
    Wedge patch 'frontAndBack_pos' is not planar.
At local face at (0.17625 0.011756863 0.00051282716) the normal (0 -0.043577931 0.99905003) differs from the average normal (-2.8037832e-19 -0.043577951 0.99905003) by 4.0900781e-16
Either correct the patch or split it into planar parts
--> FOAM Warning : 
    From function virtual void Foam::wedgePolyPatch::calcGeometry(Foam::PstreamBuffers&)
    in file meshes/polyMesh/polyPatches/constraint/wedge/wedgePolyPatch.C at line 70
    Wedge patch 'frontAndBack_pos' is not planar.
At local face at (0.17625 0.012400861 0.00054091796) the normal (0 -0.043577968 0.99905003) differs from the average normal (-2.8037832e-19 -0.043577951 0.99905003) by 2.8935914e-16
Either correct the patch or split it into planar parts
--> FOAM Warning : 
    From function virtual void Foam::wedgePolyPatch::calcGeometry(Foam::PstreamBuffers&)
    in file meshes/polyMesh/polyPatches/constraint/wedge/wedgePolyPatch.C at line 70
    Wedge patch 'frontAndBack_pos' is not planar.
At local face at (0.17875 0.011756863 0.00051282716) the normal (0 -0.043577931 0.99905003) differs from the average normal (-2.8037832e-19 -0.043577951 0.99905003) by 4.0900781e-16
Either correct the patch or split it into planar parts
--> FOAM Warning : 
    From function virtual void Foam::wedgePolyPatch::calcGeometry(Foam::PstreamBuffers&)
    in file meshes/polyMesh/polyPatches/constraint/wedge/wedgePolyPatch.C at line 70
    Wedge patch 'frontAndBack_pos' is not planar.
At local face at (0.17875 0.012400861 0.00054091796) the normal (0 -0.043577968 0.99905003) differs from the average normal (-2.8037832e-19 -0.043577951 0.99905003) by 2.8935914e-16
Either correct the patch or split it into planar parts
--> FOAM Warning : 
    From function virtual void Foam::wedgePolyPatch::calcGeometry(Foam::PstreamBuffers&)
    in file meshes/polyMesh/polyPatches/constraint/wedge/wedgePolyPatch.C at line 70
    Wedge patch 'frontAndBack_pos' is not planar.
At local face at (0.18125 0.011756863 0.00051282716) the normal (0 -0.043577931 0.99905003) differs from the average normal (-2.8037832e-19 -0.043577951 0.99905003) by 4.0900781e-16
Either correct the patch or split it into planar parts
--> FOAM Warning : 
    From function virtual void Foam::wedgePolyPatch::calcGeometry(Foam::PstreamBuffers&)
    in file meshes/polyMesh/polyPatches/constraint/wedge/wedgePolyPatch.C at line 70
    Wedge patch 'frontAndBack_pos' is not planar.
At local face at (0.18125 0.012400861 0.00054091796) the normal (0 -0.043577968 0.99905003) differs from the average normal (-2.8037832e-19 -0.043577951 0.99905003) by 2.8935914e-16
Either correct the patch or split it into planar parts
--> FOAM Warning : 
    From function virtual void Foam::wedgePolyPatch::calcGeometry(Foam::PstreamBuffers&)
    in file meshes/polyMesh/polyPatches/constraint/wedge/wedgePolyPatch.C at line 70
    Wedge patch 'frontAndBack_pos' is not planar.
At local face at (0.18375 0.011756863 0.00051282716) the normal (0 -0.043577931 0.99905003) differs from the average normal (-2.8037832e-19 -0.043577951 0.99905003) by 4.0900781e-16
Either correct the patch or split it into planar parts
--> FOAM Warning : 
    From function virtual void Foam::wedgePolyPatch::calcGeometry(Foam::PstreamBuffers&)
    in file meshes/polyMesh/polyPatches/constraint/wedge/wedgePolyPatch.C at line 70
    Wedge patch 'frontAndBack_pos' is not planar.
At local face at (0.18375 0.012400861 0.00054091796) the normal (0 -0.043577968 0.99905003) differs from the average normal (-2.8037832e-19 -0.043577951 0.99905003) by 2.8935914e-16
Either correct the patch or split it into planar parts
--> FOAM Warning : 
    From function virtual void Foam::wedgePolyPatch::calcGeometry(Foam::PstreamBuffers&)
    in file meshes/polyMesh/polyPatches/constraint/wedge/wedgePolyPatch.C at line 70
    Wedge patch 'frontAndBack_pos' is not planar.
At local face at (0.18625 0.011756863 0.00051282716) the normal (0 -0.043577931 0.99905003) differs from the average normal (-2.8037832e-19 -0.043577951 0.99905003) by 4.0900781e-16
Either correct the patch or split it into planar parts
--> FOAM Warning : 
    From function virtual void Foam::wedgePolyPatch::calcGeometry(Foam::PstreamBuffers&)
    in file meshes/polyMesh/polyPatches/constraint/wedge/wedgePolyPatch.C at line 70
    Wedge patch 'frontAndBack_pos' is not planar.
At local face at (0.18625 0.012400861 0.00054091796) the normal (0 -0.043577968 0.99905003) differs from the average normal (-2.8037832e-19 -0.043577951 0.99905003) by 2.8935914e-16
Either correct the patch or split it into planar parts
--> FOAM Warning : 
    From function virtual void Foam::wedgePolyPatch::calcGeometry(Foam::PstreamBuffers&)
    in file meshes/polyMesh/polyPatches/constraint/wedge/wedgePolyPatch.C at line 70
    Wedge patch 'frontAndBack_pos' is not planar.
At local face at (0.18875 0.011756863 0.00051282716) the normal (0 -0.043577931 0.99905003) differs from the average normal (-2.8037832e-19 -0.043577951 0.99905003) by 4.0900781e-16
Either correct the patch or split it into planar parts
--> FOAM Warning : 
    From function virtual void Foam::wedgePolyPatch::calcGeometry(Foam::PstreamBuffers&)
    in file meshes/polyMesh/polyPatches/constraint/wedge/wedgePolyPatch.C at line 70
    Wedge patch 'frontAndBack_pos' is not planar.
At local face at (0.18875 0.012400861 0.00054091796) the normal (0 -0.043577968 0.99905003) differs from the average normal (-2.8037832e-19 -0.043577951 0.99905003) by 2.8935914e-16
Either correct the patch or split it into planar parts
--> FOAM Warning : 
    From function virtual void Foam::wedgePolyPatch::calcGeometry(Foam::PstreamBuffers&)
    in file meshes/polyMesh/polyPatches/constraint/wedge/wedgePolyPatch.C at line 70
    Wedge patch 'frontAndBack_pos' is not planar.
At local face at (0.19125 0.011756863 0.00051282716) the normal (0 -0.043577931 0.99905003) differs from the average normal (-2.8037832e-19 -0.043577951 0.99905003) by 4.0900781e-16
Either correct the patch or split it into planar parts
--> FOAM Warning : 
    From function virtual void Foam::wedgePolyPatch::calcGeometry(Foam::PstreamBuffers&)
    in file meshes/polyMesh/polyPatches/constraint/wedge/wedgePolyPatch.C at line 70
    Wedge patch 'frontAndBack_pos' is not planar.
At local face at (0.19125 0.012400861 0.00054091796) the normal (0 -0.043577968 0.99905003) differs from the average normal (-2.8037832e-19 -0.043577951 0.99905003) by 2.8935914e-16
Either correct the patch or split it into planar parts
--> FOAM Warning : 
    From function virtual void Foam::wedgePolyPatch::calcGeometry(Foam::PstreamBuffers&)
    in file meshes/polyMesh/polyPatches/constraint/wedge/wedgePolyPatch.C at line 70
    Wedge patch 'frontAndBack_pos' is not planar.
At local face at (0.19375 0.011756863 0.00051282716) the normal (0 -0.043577931 0.99905003) differs from the average normal (-2.8037832e-19 -0.043577951 0.99905003) by 4.0900781e-16
Either correct the patch or split it into planar parts
--> FOAM Warning : 
    From function virtual void Foam::wedgePolyPatch::calcGeometry(Foam::PstreamBuffers&)
    in file meshes/polyMesh/polyPatches/constraint/wedge/wedgePolyPatch.C at line 70
    Wedge patch 'frontAndBack_pos' is not planar.
At local face at (0.19375 0.012400861 0.00054091796) the normal (0 -0.043577968 0.99905003) differs from the average normal (-2.8037832e-19 -0.043577951 0.99905003) by 2.8935914e-16
Either correct the patch or split it into planar parts
--> FOAM Warning : 
    From function virtual void Foam::wedgePolyPatch::calcGeometry(Foam::PstreamBuffers&)
    in file meshes/polyMesh/polyPatches/constraint/wedge/wedgePolyPatch.C at line 70
    Wedge patch 'frontAndBack_pos' is not planar.
At local face at (0.19625 0.011756863 0.00051282716) the normal (0 -0.043577931 0.99905003) differs from the average normal (-2.8037832e-19 -0.043577951 0.99905003) by 4.0900781e-16
Either correct the patch or split it into planar parts
--> FOAM Warning : 
    From function virtual void Foam::wedgePolyPatch::calcGeometry(Foam::PstreamBuffers&)
    in file meshes/polyMesh/polyPatches/constraint/wedge/wedgePolyPatch.C at line 70
    Wedge patch 'frontAndBack_pos' is not planar.
At local face at (0.19625 0.012400861 0.00054091796) the normal (0 -0.043577968 0.99905003) differs from the average normal (-2.8037832e-19 -0.043577951 0.99905003) by 2.8935914e-16
Either correct the patch or split it into planar parts
--> FOAM Warning : 
    From function virtual void Foam::wedgePolyPatch::calcGeometry(Foam::PstreamBuffers&)
    in file meshes/polyMesh/polyPatches/constraint/wedge/wedgePolyPatch.C at line 70
    Wedge patch 'frontAndBack_pos' is not planar.
At local face at (0.19875 0.011756863 0.00051282716) the normal (0 -0.043577931 0.99905003) differs from the average normal (-2.8037832e-19 -0.043577951 0.99905003) by 4.0900781e-16
Either correct the patch or split it into planar parts
--> FOAM Warning : 
    From function virtual void Foam::wedgePolyPatch::calcGeometry(Foam::PstreamBuffers&)
    in file meshes/polyMesh/polyPatches/constraint/wedge/wedgePolyPatch.C at line 70
    Wedge patch 'frontAndBack_pos' is not planar.
At local face at (0.19875 0.012400861 0.00054091796) the normal (0 -0.043577968 0.99905003) differs from the average normal (-2.8037832e-19 -0.043577951 0.99905003) by 2.8935914e-16
Either correct the patch or split it into planar parts
--> FOAM Warning : 
    From function virtual void Foam::wedgePolyPatch::calcGeometry(Foam::PstreamBuffers&)
    in file meshes/polyMesh/polyPatches/constraint/wedge/wedgePolyPatch.C at line 70
    Wedge patch 'frontAndBack_pos' is not planar.
At local face at (0.20125 0.011756863 0.00051282716) the normal (0 -0.043577931 0.99905003) differs from the average normal (-2.8037832e-19 -0.043577951 0.99905003) by 4.0900781e-16
Either correct the patch or split it into planar parts
--> FOAM Warning : 
    From function virtual void Foam::wedgePolyPatch::calcGeometry(Foam::PstreamBuffers&)
    in file meshes/polyMesh/polyPatches/constraint/wedge/wedgePolyPatch.C at line 70
    Wedge patch 'frontAndBack_pos' is not planar.
At local face at (0.20125 0.012400861 0.00054091796) the normal (0 -0.043577968 0.99905003) differs from the average normal (-2.8037832e-19 -0.043577951 0.99905003) by 2.8935914e-16
Either correct the patch or split it into planar parts
--> FOAM Warning : 
    From function virtual void Foam::wedgePolyPatch::calcGeometry(Foam::PstreamBuffers&)
    in file meshes/polyMesh/polyPatches/constraint/wedge/wedgePolyPatch.C at line 70
    Wedge patch 'frontAndBack_pos' is not planar.
At local face at (0.20375 0.011756863 0.00051282716) the normal (0 -0.043577931 0.99905003) differs from the average normal (-2.8037832e-19 -0.043577951 0.99905003) by 4.0900781e-16
Either correct the patch or split it into planar parts
--> FOAM Warning : 
    From function virtual void Foam::wedgePolyPatch::calcGeometry(Foam::PstreamBuffers&)
    in file meshes/polyMesh/polyPatches/constraint/wedge/wedgePolyPatch.C at line 70
    Wedge patch 'frontAndBack_pos' is not planar.
At local face at (0.20375 0.012400861 0.00054091796) the normal (0 -0.043577968 0.99905003) differs from the average normal (-2.8037832e-19 -0.043577951 0.99905003) by 2.8935914e-16
Either correct the patch or split it into planar parts
--> FOAM Warning : 
[...]
    Wedge patch 'frontAndBack_neg' is not planar.
At local face at (0.44875 0.011756863 -0.00051282716) the normal (0 -0.043577931 -0.99905003) differs from the average normal (0 -0.043577951 -0.99905003) by 4.0900781e-16
Either correct the patch or split it into planar parts
--> FOAM Warning : 
    From function virtual void Foam::wedgePolyPatch::calcGeometry(Foam::PstreamBuffers&)
    in file meshes/polyMesh/polyPatches/constraint/wedge/wedgePolyPatch.C at line 70
    Wedge patch 'frontAndBack_neg' is not planar.
At local face at (0.44875 0.012400861 -0.00054091796) the normal (0 -0.043577968 -0.99905003) differs from the average normal (0 -0.043577951 -0.99905003) by 2.8935914e-16
Either correct the patch or split it into planar parts
--> FOAM Warning : 
    From function virtual void Foam::wedgePolyPatch::calcGeometry(Foam::PstreamBuffers&)
    in file meshes/polyMesh/polyPatches/constraint/wedge/wedgePolyPatch.C at line 70
    Wedge patch 'frontAndBack_neg' is not planar.
At local face at (0.45125 0.011756863 -0.00051282716) the normal (0 -0.043577931 -0.99905003) differs from the average normal (0 -0.043577951 -0.99905003) by 4.0900781e-16
Either correct the patch or split it into planar parts
--> FOAM Warning : 
    From function virtual void Foam::wedgePolyPatch::calcGeometry(Foam::PstreamBuffers&)
    in file meshes/polyMesh/polyPatches/constraint/wedge/wedgePolyPatch.C at line 70
    Wedge patch 'frontAndBack_neg' is not planar.
At local face at (0.45125 0.012400861 -0.00054091796) the normal (0 -0.043577968 -0.99905003) differs from the average normal (0 -0.043577951 -0.99905003) by 2.8935914e-16
Either correct the patch or split it into planar parts
--> FOAM Warning : 
    From function virtual void Foam::wedgePolyPatch::calcGeometry(Foam::PstreamBuffers&)
    in file meshes/polyMesh/polyPatches/constraint/wedge/wedgePolyPatch.C at line 70
    Wedge patch 'frontAndBack_neg' is not planar.
At local face at (0.45375 0.011756863 -0.00051282716) the normal (0 -0.043577931 -0.99905003) differs from the average normal (0 -0.043577951 -0.99905003) by 4.0900781e-16
Either correct the patch or split it into planar parts
--> FOAM Warning : 
    From function virtual void Foam::wedgePolyPatch::calcGeometry(Foam::PstreamBuffers&)
    in file meshes/polyMesh/polyPatches/constraint/wedge/wedgePolyPatch.C at line 70
    Wedge patch 'frontAndBack_neg' is not planar.
At local face at (0.45375 0.012400861 -0.00054091796) the normal (0 -0.043577968 -0.99905003) differs from the average normal (0 -0.043577951 -0.99905003) by 2.8935914e-16
Either correct the patch or split it into planar parts
--> FOAM Warning : 
    From function virtual void Foam::wedgePolyPatch::calcGeometry(Foam::PstreamBuffers&)
    in file meshes/polyMesh/polyPatches/constraint/wedge/wedgePolyPatch.C at line 70
    Wedge patch 'frontAndBack_neg' is not planar.
At local face at (0.45625 0.011756863 -0.00051282716) the normal (0 -0.043577931 -0.99905003) differs from the average normal (0 -0.043577951 -0.99905003) by 4.0900781e-16
Either correct the patch or split it into planar parts
--> FOAM Warning : 
    From function virtual void Foam::wedgePolyPatch::calcGeometry(Foam::PstreamBuffers&)
    in file meshes/polyMesh/polyPatches/constraint/wedge/wedgePolyPatch.C at line 70
    Wedge patch 'frontAndBack_neg' is not planar.
At local face at (0.45625 0.012400861 -0.00054091796) the normal (0 -0.043577968 -0.99905003) differs from the average normal (0 -0.043577951 -0.99905003) by 2.8935914e-16
Either correct the patch or split it into planar parts
--> FOAM Warning : 
    From function virtual void Foam::wedgePolyPatch::calcGeometry(Foam::PstreamBuffers&)
    in file meshes/polyMesh/polyPatches/constraint/wedge/wedgePolyPatch.C at line 70
    Wedge patch 'frontAndBack_neg' is not planar.
At local face at (0.45875 0.011756863 -0.00051282716) the normal (0 -0.043577931 -0.99905003) differs from the average normal (0 -0.043577951 -0.99905003) by 4.0900781e-16
Either correct the patch or split it into planar parts
--> FOAM Warning : 
    From function virtual void Foam::wedgePolyPatch::calcGeometry(Foam::PstreamBuffers&)
    in file meshes/polyMesh/polyPatches/constraint/wedge/wedgePolyPatch.C at line 70
    Wedge patch 'frontAndBack_neg' is not planar.
At local face at (0.45875 0.012400861 -0.00054091796) the normal (0 -0.043577968 -0.99905003) differs from the average normal (0 -0.043577951 -0.99905003) by 2.8935914e-16
Either correct the patch or split it into planar parts
--> FOAM Warning : 
    From function virtual void Foam::wedgePolyPatch::calcGeometry(Foam::PstreamBuffers&)
    in file meshes/polyMesh/polyPatches/constraint/wedge/wedgePolyPatch.C at line 70
    Wedge patch 'frontAndBack_neg' is not planar.
At local face at (0.46125 0.011756863 -0.00051282716) the normal (0 -0.043577931 -0.99905003) differs from the average normal (0 -0.043577951 -0.99905003) by 4.0900781e-16
Either correct the patch or split it into planar parts
--> FOAM Warning : 
    From function virtual void Foam::wedgePolyPatch::calcGeometry(Foam::PstreamBuffers&)
    in file meshes/polyMesh/polyPatches/constraint/wedge/wedgePolyPatch.C at line 70
    Wedge patch 'frontAndBack_neg' is not planar.
At local face at (0.46125 0.012400861 -0.00054091796) the normal (0 -0.043577968 -0.99905003) differs from the average normal (0 -0.043577951 -0.99905003) by 2.8935914e-16
Either correct the patch or split it into planar parts
--> FOAM Warning : 
    From function virtual void Foam::wedgePolyPatch::calcGeometry(Foam::PstreamBuffers&)
    in file meshes/polyMesh/polyPatches/constraint/wedge/wedgePolyPatch.C at line 70
    Wedge patch 'frontAndBack_neg' is not planar.
At local face at (0.46375 0.011756863 -0.00051282716) the normal (0 -0.043577931 -0.99905003) differs from the average normal (0 -0.043577951 -0.99905003) by 4.0900781e-16
Either correct the patch or split it into planar parts
--> FOAM Warning : 
    From function virtual void Foam::wedgePolyPatch::calcGeometry(Foam::PstreamBuffers&)
    in file meshes/polyMesh/polyPatches/constraint/wedge/wedgePolyPatch.C at line 70
    Wedge patch 'frontAndBack_neg' is not planar.
At local face at (0.46375 0.012400861 -0.00054091796) the normal (0 -0.043577968 -0.99905003) differs from the average normal (0 -0.043577951 -0.99905003) by 2.8935914e-16
Either correct the patch or split it into planar parts
--> FOAM Warning : 
    From function virtual void Foam::wedgePolyPatch::calcGeometry(Foam::PstreamBuffers&)
    in file meshes/polyMesh/polyPatches/constraint/wedge/wedgePolyPatch.C at line 70
    Wedge patch 'frontAndBack_neg' is not planar.
At local face at (0.46625 0.011756863 -0.00051282716) the normal (0 -0.043577931 -0.99905003) differs from the average normal (0 -0.043577951 -0.99905003) by 4.0900781e-16
Either correct the patch or split it into planar parts
--> FOAM Warning : 
    From function virtual void Foam::wedgePolyPatch::calcGeometry(Foam::PstreamBuffers&)
    in file meshes/polyMesh/polyPatches/constraint/wedge/wedgePolyPatch.C at line 70
    Wedge patch 'frontAndBack_neg' is not planar.
At local face at (0.46625 0.012400861 -0.00054091796) the normal (0 -0.043577968 -0.99905003) differs from the average normal (0 -0.043577951 -0.99905003) by 2.8935914e-16
Either correct the patch or split it into planar parts
--> FOAM Warning : 
    From function virtual void Foam::wedgePolyPatch::calcGeometry(Foam::PstreamBuffers&)
    in file meshes/polyMesh/polyPatches/constraint/wedge/wedgePolyPatch.C at line 70
    Wedge patch 'frontAndBack_neg' is not planar.
At local face at (0.46875 0.011756863 -0.00051282716) the normal (0 -0.043577931 -0.99905003) differs from the average normal (0 -0.043577951 -0.99905003) by 4.0900781e-16
Either correct the patch or split it into planar parts
--> FOAM Warning : 
    From function virtual void Foam::wedgePolyPatch::calcGeometry(Foam::PstreamBuffers&)
    in file meshes/polyMesh/polyPatches/constraint/wedge/wedgePolyPatch.C at line 70
    Wedge patch 'frontAndBack_neg' is not planar.
At local face at (0.46875 0.012400861 -0.00054091796) the normal (0 -0.043577968 -0.99905003) differs from the average normal (0 -0.043577951 -0.99905003) by 2.8935914e-16
Either correct the patch or split it into planar parts
--> FOAM Warning : 
    From function virtual void Foam::wedgePolyPatch::calcGeometry(Foam::PstreamBuffers&)
    in file meshes/polyMesh/polyPatches/constraint/wedge/wedgePolyPatch.C at line 70
    Wedge patch 'frontAndBack_neg' is not planar.
At local face at (0.47125 0.011756863 -0.00051282716) the normal (0 -0.043577931 -0.99905003) differs from the average normal (0 -0.043577951 -0.99905003) by 4.0900781e-16
Either correct the patch or split it into planar parts
--> FOAM Warning : 
    From function virtual void Foam::wedgePolyPatch::calcGeometry(Foam::PstreamBuffers&)
    in file meshes/polyMesh/polyPatches/constraint/wedge/wedgePolyPatch.C at line 70
    Wedge patch 'frontAndBack_neg' is not planar.
At local face at (0.47125 0.012400861 -0.00054091796) the normal (0 -0.043577968 -0.99905003) differs from the average normal (0 -0.043577951 -0.99905003) by 2.8935914e-16
Either correct the patch or split it into planar parts
--> FOAM Warning : 
    From function virtual void Foam::wedgePolyPatch::calcGeometry(Foam::PstreamBuffers&)
    in file meshes/polyMesh/polyPatches/constraint/wedge/wedgePolyPatch.C at line 70
    Wedge patch 'frontAndBack_neg' is not planar.
At local face at (0.47375 0.011756863 -0.00051282716) the normal (0 -0.043577931 -0.99905003) differs from the average normal (0 -0.043577951 -0.99905003) by 4.0900781e-16
Either correct the patch or split it into planar parts
--> FOAM Warning : 
    From function virtual void Foam::wedgePolyPatch::calcGeometry(Foam::PstreamBuffers&)
    in file meshes/polyMesh/polyPatches/constraint/wedge/wedgePolyPatch.C at line 70
    Wedge patch 'frontAndBack_neg' is not planar.
At local face at (0.47375 0.012400861 -0.00054091796) the normal (0 -0.043577968 -0.99905003) differs from the average normal (0 -0.043577951 -0.99905003) by 2.8935914e-16
Either correct the patch or split it into planar parts
--> FOAM Warning : 
    From function virtual void Foam::wedgePolyPatch::calcGeometry(Foam::PstreamBuffers&)
    in file meshes/polyMesh/polyPatches/constraint/wedge/wedgePolyPatch.C at line 70
    Wedge patch 'frontAndBack_neg' is not planar.
At local face at (0.47625 0.011756863 -0.00051282716) the normal (0 -0.043577931 -0.99905003) differs from the average normal (0 -0.043577951 -0.99905003) by 4.0900781e-16
Either correct the patch or split it into planar parts
--> FOAM Warning : 
    From function virtual void Foam::wedgePolyPatch::calcGeometry(Foam::PstreamBuffers&)
    in file meshes/polyMesh/polyPatches/constraint/wedge/wedgePolyPatch.C at line 70
    Wedge patch 'frontAndBack_neg' is not planar.
At local face at (0.47625 0.012400861 -0.00054091796) the normal (0 -0.043577968 -0.99905003) differs from the average normal (0 -0.043577951 -0.99905003) by 2.8935914e-16
Either correct the patch or split it into planar parts
--> FOAM Warning : 
    From function virtual void Foam::wedgePolyPatch::calcGeometry(Foam::PstreamBuffers&)
    in file meshes/polyMesh/polyPatches/constraint/wedge/wedgePolyPatch.C at line 70
    Wedge patch 'frontAndBack_neg' is not planar.
At local face at (0.47875 0.011756863 -0.00051282716) the normal (0 -0.043577931 -0.99905003) differs from the average normal (0 -0.043577951 -0.99905003) by 4.0900781e-16
Either correct the patch or split it into planar parts
--> FOAM Warning : 
    From function virtual void Foam::wedgePolyPatch::calcGeometry(Foam::PstreamBuffers&)
    in file meshes/polyMesh/polyPatches/constraint/wedge/wedgePolyPatch.C at line 70
    Wedge patch 'frontAndBack_neg' is not planar.
At local face at (0.47875 0.012400861 -0.00054091796) the normal (0 -0.043577968 -0.99905003) differs from the average normal (0 -0.043577951 -0.99905003) by 2.8935914e-16
Either correct the patch or split it into planar parts
--> FOAM Warning : 
    From function virtual void Foam::wedgePolyPatch::calcGeometry(Foam::PstreamBuffers&)
    in file meshes/polyMesh/polyPatches/constraint/wedge/wedgePolyPatch.C at line 70
    Wedge patch 'frontAndBack_neg' is not planar.
At local face at (0.48125 0.011756863 -0.00051282716) the normal (0 -0.043577931 -0.99905003) differs from the average normal (0 -0.043577951 -0.99905003) by 4.0900781e-16
Either correct the patch or split it into planar parts
--> FOAM Warning : 
    From function virtual void Foam::wedgePolyPatch::calcGeometry(Foam::PstreamBuffers&)
    in file meshes/polyMesh/polyPatches/constraint/wedge/wedgePolyPatch.C at line 70
    Wedge patch 'frontAndBack_neg' is not planar.
At local face at (0.48125 0.012400861 -0.00054091796) the normal (0 -0.043577968 -0.99905003) differs from the average normal (0 -0.043577951 -0.99905003) by 2.8935914e-16
Either correct the patch or split it into planar parts
--> FOAM Warning : 
    From function virtual void Foam::wedgePolyPatch::calcGeometry(Foam::PstreamBuffers&)
    in file meshes/polyMesh/polyPatches/constraint/wedge/wedgePolyPatch.C at line 70
    Wedge patch 'frontAndBack_neg' is not planar.
At local face at (0.48375 0.011756863 -0.00051282716) the normal (0 -0.043577931 -0.99905003) differs from the average normal (0 -0.043577951 -0.99905003) by 4.0900781e-16
Either correct the patch or split it into planar parts
--> FOAM Warning : 
    From function virtual void Foam::wedgePolyPatch::calcGeometry(Foam::PstreamBuffers&)
    in file meshes/polyMesh/polyPatches/constraint/wedge/wedgePolyPatch.C at line 70
    Wedge patch 'frontAndBack_neg' is not planar.
At local face at (0.48375 0.012400861 -0.00054091796) the normal (0 -0.043577968 -0.99905003) differs from the average normal (0 -0.043577951 -0.99905003) by 2.8935914e-16
Either correct the patch or split it into planar parts
--> FOAM Warning : 
    From function virtual void Foam::wedgePolyPatch::calcGeometry(Foam::PstreamBuffers&)
    in file meshes/polyMesh/polyPatches/constraint/wedge/wedgePolyPatch.C at line 70
    Wedge patch 'frontAndBack_neg' is not planar.
At local face at (0.48625 0.011756863 -0.00051282716) the normal (0 -0.043577931 -0.99905003) differs from the average normal (0 -0.043577951 -0.99905003) by 4.0900781e-16
Either correct the patch or split it into planar parts
--> FOAM Warning : 
    From function virtual void Foam::wedgePolyPatch::calcGeometry(Foam::PstreamBuffers&)
    in file meshes/polyMesh/polyPatches/constraint/wedge/wedgePolyPatch.C at line 70
    Wedge patch 'frontAndBack_neg' is not planar.
At local face at (0.48625 0.012400861 -0.00054091796) the normal (0 -0.043577968 -0.99905003) differs from the average normal (0 -0.043577951 -0.99905003) by 2.8935914e-16
Either correct the patch or split it into planar parts
--> FOAM Warning : 
    From function virtual void Foam::wedgePolyPatch::calcGeometry(Foam::PstreamBuffers&)
    in file meshes/polyMesh/polyPatches/constraint/wedge/wedgePolyPatch.C at line 70
    Wedge patch 'frontAndBack_neg' is not planar.
At local face at (0.48875 0.011756863 -0.00051282716) the normal (0 -0.043577931 -0.99905003) differs from the average normal (0 -0.043577951 -0.99905003) by 4.0900781e-16
Either correct the patch or split it into planar parts
--> FOAM Warning : 
    From function virtual void Foam::wedgePolyPatch::calcGeometry(Foam::PstreamBuffers&)
    in file meshes/polyMesh/polyPatches/constraint/wedge/wedgePolyPatch.C at line 70
    Wedge patch 'frontAndBack_neg' is not planar.
At local face at (0.48875 0.012400861 -0.00054091796) the normal (0 -0.043577968 -0.99905003) differs from the average normal (0 -0.043577951 -0.99905003) by 2.8935914e-16
Either correct the patch or split it into planar parts
--> FOAM Warning : 
    From function virtual void Foam::wedgePolyPatch::calcGeometry(Foam::PstreamBuffers&)
    in file meshes/polyMesh/polyPatches/constraint/wedge/wedgePolyPatch.C at line 70
    Wedge patch 'frontAndBack_neg' is not planar.
At local face at (0.49125 0.011756863 -0.00051282716) the normal (0 -0.043577931 -0.99905003) differs from the average normal (0 -0.043577951 -0.99905003) by 4.0900781e-16
Either correct the patch or split it into planar parts
--> FOAM Warning : 
    From function virtual void Foam::wedgePolyPatch::calcGeometry(Foam::PstreamBuffers&)
    in file meshes/polyMesh/polyPatches/constraint/wedge/wedgePolyPatch.C at line 70
    Wedge patch 'frontAndBack_neg' is not planar.
At local face at (0.49125 0.012400861 -0.00054091796) the normal (0 -0.043577968 -0.99905003) differs from the average normal (0 -0.043577951 -0.99905003) by 2.8935914e-16
Either correct the patch or split it into planar parts
--> FOAM Warning : 
    From function virtual void Foam::wedgePolyPatch::calcGeometry(Foam::PstreamBuffers&)
    in file meshes/polyMesh/polyPatches/constraint/wedge/wedgePolyPatch.C at line 70
    Wedge patch 'frontAndBack_neg' is not planar.
At local face at (0.49375 0.011756863 -0.00051282716) the normal (0 -0.043577931 -0.99905003) differs from the average normal (0 -0.043577951 -0.99905003) by 4.0900781e-16
Either correct the patch or split it into planar parts
--> FOAM Warning : 
    From function virtual void Foam::wedgePolyPatch::calcGeometry(Foam::PstreamBuffers&)
    in file meshes/polyMesh/polyPatches/constraint/wedge/wedgePolyPatch.C at line 70
    Wedge patch 'frontAndBack_neg' is not planar.
At local face at (0.49375 0.012400861 -0.00054091796) the normal (0 -0.043577968 -0.99905003) differs from the average normal (0 -0.043577951 -0.99905003) by 2.8935914e-16
Either correct the patch or split it into planar parts
--> FOAM Warning : 
    From function virtual void Foam::wedgePolyPatch::calcGeometry(Foam::PstreamBuffers&)
    in file meshes/polyMesh/polyPatches/constraint/wedge/wedgePolyPatch.C at line 70
    Wedge patch 'frontAndBack_neg' is not planar.
At local face at (0.49625 0.011756863 -0.00051282716) the normal (0 -0.043577931 -0.99905003) differs from the average normal (0 -0.043577951 -0.99905003) by 4.0900781e-16
Either correct the patch or split it into planar parts
--> FOAM Warning : 
    From function virtual void Foam::wedgePolyPatch::calcGeometry(Foam::PstreamBuffers&)
    in file meshes/polyMesh/polyPatches/constraint/wedge/wedgePolyPatch.C at line 70
    Wedge patch 'frontAndBack_neg' is not planar.
At local face at (0.49625 0.012400861 -0.00054091796) the normal (0 -0.043577968 -0.99905003) differs from the average normal (0 -0.043577951 -0.99905003) by 2.8935914e-16
Either correct the patch or split it into planar parts
--> FOAM Warning : 
    From function virtual void Foam::wedgePolyPatch::calcGeometry(Foam::PstreamBuffers&)
    in file meshes/polyMesh/polyPatches/constraint/wedge/wedgePolyPatch.C at line 70
    Wedge patch 'frontAndBack_neg' is not planar.
At local face at (0.49875 0.011756863 -0.00051282716) the normal (0 -0.043577931 -0.99905003) differs from the average normal (0 -0.043577951 -0.99905003) by 4.0900781e-16
Either correct the patch or split it into planar parts
--> FOAM Warning : 
    From function virtual void Foam::wedgePolyPatch::calcGeometry(Foam::PstreamBuffers&)
    in file meshes/polyMesh/polyPatches/constraint/wedge/wedgePolyPatch.C at line 70
    Wedge patch 'frontAndBack_neg' is not planar.
At local face at (0.49875 0.012400861 -0.00054091796) the normal (0 -0.043577968 -0.99905003) differs from the average normal (0 -0.043577951 -0.99905003) by 2.8935914e-16
Either correct the patch or split it into planar parts
Reading "topoSetDict"

Time = 0s
    mesh not changed.
Created cellSet porosity
    Applying source boxToCell
    Adding cells with center within boxes 1((0 -7 -7) (0.5 7 7))
    cellSet porosity now size 1200
Created cellZoneSet porosity
    Applying source setToCellZone
    Adding all cells from cellSet porosity ...
    cellZoneSet porosity now size 1200
End

